/*--------------------------------*- C++ -*----------------------------------*\
| =========                 |                                                 |
| \\      /  F ield         | OpenFOAM: The Open Source CFD Toolbox           |
|  \\    /   O peration     | Version:  v1706                                 |
|   \\  /    A nd           | Web:      www.OpenFOAM.com                      |
|    \\/     M anipulation  |                                                 |
\*---------------------------------------------------------------------------*/
FoamFile
{
    version     2.0;
    format      ascii;
    class       featureEdgeMesh;
    location    "constant/triSurface";
    object      Autosub.eMesh;
}
// * * * * * * * * * * * * * * * * * * * * * * * * * * * * * * * * * * * * * //


// points:

439
(
(-0.4448040128 -6.380770355e-05 -0.08461540192)
(-0.4044240117 0 -0.08461540192)
(-0.4044240117 0.08461540192 0)
(-0.4448040128 0.08461540192 -6.380770355e-05)
(-0.4448040128 -0.08461540192 -6.380770355e-05)
(-0.4044240117 -0.08461540192 3.757680022e-17)
(-0.4044240117 0 0.08461540192)
(-0.4448040128 -6.380770355e-05 0.08461540192)
(-0.3952440023 0 -0.03952080011)
(-0.4448040128 -8.101000276e-05 -0.0311019998)
(-0.3952440023 0.03952080011 5.006499904e-18)
(-0.3952440023 0 0.03952080011)
(-0.4448040128 0.0311019998 -8.101000276e-05)
(-0.4448040128 -0.0311019998 -8.101000276e-05)
(-0.4448040128 -8.101000276e-05 0.0311019998)
(-0.3952440023 -0.03952080011 2.756380041e-17)
(-0.4396939874 0.0009248789866 -0.03195669875)
(-0.4422439933 0.0005159400171 -0.03153260052)
(-0.4346239865 0.001669949968 -0.03278980032)
(-0.4295740128 0.002324909903 -0.03360870108)
(-0.4245640039 0.002886069939 -0.03441929817)
(-0.4195939898 0.003337129951 -0.03522789851)
(-0.4146440029 0.003646380035 -0.03604149818)
(-0.4097340107 0.003758430015 -0.03686830029)
(-0.4072940052 0.003714489983 -0.03728939965)
(-0.4048640132 0.003580709919 -0.0377173014)
(-0.402444005 0.003330149921 -0.03815310076)
(-0.4000340104 0.002911699936 -0.038598001)
(-0.3988339901 0.002609309973 -0.03882410005)
(-0.3976339996 0.002206149977 -0.03905300051)
(-0.3964439929 0.001621169969 -0.03928479925)
(-0.3958440125 0.001173640019 -0.03940210119)
(-0.3958440125 -0.001173640019 -0.03940210119)
(-0.3964439929 -0.001621169969 -0.03928479925)
(-0.3976339996 -0.002206149977 -0.03905300051)
(-0.3988339901 -0.002609309973 -0.03882410005)
(-0.4000340104 -0.002911699936 -0.038598001)
(-0.402444005 -0.003330149921 -0.03815310076)
(-0.4048640132 -0.003580709919 -0.0377173014)
(-0.4072940052 -0.003714489983 -0.03728939965)
(-0.4097340107 -0.003758430015 -0.03686830029)
(-0.4146440029 -0.003646380035 -0.03604149818)
(-0.4195939898 -0.003337129951 -0.03522789851)
(-0.4245640039 -0.002886069939 -0.03441929817)
(-0.4295740128 -0.002324909903 -0.03360870108)
(-0.4346239865 -0.001669949968 -0.03278980032)
(-0.4396939874 -0.0009248789866 -0.03195669875)
(-0.4422439933 -0.0005159400171 -0.03153260052)
(-0.3958440125 0.03940210119 -0.001173640019)
(-0.3964439929 0.03928479925 -0.001621169969)
(-0.4048640132 -0.0377173014 -0.003580709919)
(-0.402444005 -0.03815310076 -0.003330149921)
(-0.3976339996 0.03905300051 -0.002206149977)
(-0.3988339901 0.03882410005 -0.002609309973)
(-0.4000340104 0.038598001 -0.002911699936)
(-0.402444005 0.03815310076 -0.003330149921)
(-0.4146440029 -0.03604149818 0.003646380035)
(-0.4195939898 -0.03522789851 0.003337129951)
(-0.4072940052 -0.03728939965 -0.003714489983)
(-0.4245640039 0.03441929817 0.002886069939)
(-0.4195939898 0.03522789851 0.003337129951)
(-0.4048640132 0.0377173014 -0.003580709919)
(-0.4072940052 0.03728939965 -0.003714489983)
(-0.4097340107 -0.03686830029 -0.003758430015)
(-0.4295740128 0.03360870108 0.002324909903)
(-0.4097340107 0.03686830029 -0.003758430015)
(-0.4346239865 0.03278980032 0.001669949968)
(-0.4245640039 -0.03441929817 0.002886069939)
(-0.4146440029 -0.03604149818 -0.003646380035)
(-0.4146440029 0.03604149818 -0.003646380035)
(-0.4195939898 0.03522789851 -0.003337129951)
(-0.4195939898 -0.03522789851 -0.003337129951)
(-0.4396939874 0.03195669875 0.0009248789866)
(-0.4422439933 0.03153260052 0.0005159400171)
(-0.4295740128 -0.03360870108 0.002324909903)
(-0.4245640039 0.03441929817 -0.002886069939)
(-0.4444639981 0.03116109967 0)
(-0.4245640039 -0.03441929817 -0.002886069939)
(-0.4295740128 0.03360870108 -0.002324909903)
(-0.4346239865 0.03278980032 -0.001669949968)
(-0.4346239865 -0.03278980032 0.001669949968)
(-0.3958440125 0.001173640019 0.03940210119)
(-0.3964439929 0.001621169969 0.03928479925)
(-0.3976339996 0.002206149977 0.03905300051)
(-0.3988339901 0.002609309973 0.03882410005)
(-0.4295740128 -0.03360870108 -0.002324909903)
(-0.4396939874 -0.03195669875 0.0009248789866)
(-0.3958440125 -0.001173640019 0.03940210119)
(-0.4000340104 0.002911699936 0.038598001)
(-0.402444005 0.003330149921 0.03815310076)
(-0.3964439929 -0.001621169969 0.03928479925)
(-0.4346239865 -0.03278980032 -0.001669949968)
(-0.4396939874 0.03195669875 -0.0009248789866)
(-0.4422439933 0.03153260052 -0.0005159400171)
(-0.4422439933 -0.03153260052 0.0005159400171)
(-0.4048640132 0.003580709919 0.0377173014)
(-0.3976339996 -0.002206149977 0.03905300051)
(-0.4396939874 -0.03195669875 -0.0009248789866)
(-0.4422439933 -0.03153260052 -0.0005159400171)
(-0.4072940052 0.003714489983 0.03728939965)
(-0.4097340107 0.003758430015 0.03686830029)
(-0.402444005 -0.003330149921 0.03815310076)
(-0.4000340104 -0.002911699936 0.038598001)
(-0.4146440029 0.003646380035 0.03604149818)
(-0.4048640132 -0.003580709919 0.0377173014)
(-0.4072940052 -0.003714489983 0.03728939965)
(-0.4195939898 0.003337129951 0.03522789851)
(-0.4097340107 -0.003758430015 0.03686830029)
(-0.4146440029 -0.003646380035 0.03604149818)
(-0.4195939898 -0.003337129951 0.03522789851)
(-0.4245640039 0.002886069939 0.03441929817)
(-0.4295740128 0.002324909903 0.03360870108)
(-0.4245640039 -0.002886069939 0.03441929817)
(-0.4295740128 -0.002324909903 0.03360870108)
(-0.4346239865 0.001669949968 0.03278980032)
(-0.4346239865 -0.001669949968 0.03278980032)
(-0.3988339901 -0.002609309973 0.03882410005)
(-0.4396939874 0.0009248789866 0.03195669875)
(-0.4097340107 -0.03686830029 0.003758430015)
(-0.4422439933 0.0005159400171 0.03153260052)
(-0.4396939874 -0.0009248789866 0.03195669875)
(-0.4422439933 -0.0005159400171 0.03153260052)
(-0.3958440125 0.03940210119 0.001173640019)
(-0.3964439929 0.03928479925 0.001621169969)
(-0.3958440125 -0.03940210119 0.001173640019)
(-0.3964439929 -0.03928479925 0.001621169969)
(-0.3976339996 0.03905300051 0.002206149977)
(-0.3988339901 0.03882410005 0.002609309973)
(-0.4000340104 0.038598001 0.002911699936)
(-0.402444005 0.03815310076 0.003330149921)
(-0.3976339996 -0.03905300051 0.002206149977)
(-0.3988339901 -0.03882410005 0.002609309973)
(-0.3958440125 -0.03940210119 -0.001173640019)
(-0.4000340104 -0.038598001 0.002911699936)
(-0.402444005 -0.03815310076 0.003330149921)
(-0.3964439929 -0.03928479925 -0.001621169969)
(-0.4048640132 0.0377173014 0.003580709919)
(-0.4048640132 -0.0377173014 0.003580709919)
(-0.4072940052 0.03728939965 0.003714489983)
(-0.3988339901 -0.03882410005 -0.002609309973)
(-0.3976339996 -0.03905300051 -0.002206149977)
(-0.4097340107 0.03686830029 0.003758430015)
(-0.4072940052 -0.03728939965 0.003714489983)
(-0.4146440029 0.03604149818 0.003646380035)
(-0.4000340104 -0.038598001 -0.002911699936)
(-0.4427840114 -0.0004070769937 -0.08461540192)
(-0.4427840114 0.0004070769937 -0.08461540192)
(-0.44076401 0.0007309620269 -0.08461540192)
(-0.44076401 -0.0007309620269 -0.08461540192)
(-0.4367339909 0.001324209967 -0.08461540192)
(-0.4367339909 -0.001324209967 -0.08461540192)
(-0.4326939881 0.001849620021 -0.08461540192)
(-0.4326939881 -0.001849620021 -0.08461540192)
(-0.4286539853 0.002303540008 -0.08461540192)
(-0.4286539853 -0.002303540008 -0.08461540192)
(-0.4246140122 0.002672249917 -0.08461540192)
(-0.4246140122 -0.002672249917 -0.08461540192)
(-0.4205740094 0.002929500071 -0.08461540192)
(-0.4205740094 -0.002929500071 -0.08461540192)
(-0.4165340066 0.003029650077 -0.08461540192)
(-0.4165340066 -0.003029650077 -0.08461540192)
(-0.4145140052 0.002999369986 -0.08461540192)
(-0.4125039876 0.002896379912 -0.08461540192)
(-0.4145140052 -0.002999369986 -0.08461540192)
(-0.4125039876 -0.002896379912 -0.08461540192)
(-0.4104839861 0.002698499942 -0.08461540192)
(-0.4104839861 -0.002698499942 -0.08461540192)
(-0.4084640145 0.002363709966 -0.08461540192)
(-0.4074540138 0.002120190067 -0.08461540192)
(-0.4084640145 -0.002363709966 -0.08461540192)
(-0.4074540138 -0.002120190067 -0.08461540192)
(-0.4064440131 0.00179429003 -0.08461540192)
(-0.4064440131 -0.00179429003 -0.08461540192)
(-0.4054340124 0.001319770003 -0.08461540192)
(-0.4049240053 0.0009559040191 -0.08461540192)
(-0.4054340124 -0.001319770003 -0.08461540192)
(-0.4049240053 -0.0009559040191 -0.08461540192)
(-0.5486540198 -0.009057899937 0.009958289564)
(-0.5486540198 -0.008674579673 0.01029390004)
(-0.5486540198 -0.009428249672 0.00960838981)
(-0.5486540198 -0.009785089642 0.009244729765)
(-0.5486540198 -0.01012790017 0.008867830038)
(-0.5486540198 -0.01045619976 0.008478219621)
(-0.5486540198 -0.01076960005 0.008076470345)
(-0.5486540198 -0.01106750034 0.007663149852)
(-0.5486540198 -0.01134950016 0.007238849998)
(-0.5486540198 -0.01161529962 0.006804179866)
(-0.5486540198 -0.01186450012 0.006359760184)
(-0.5486540198 -0.01209670026 0.005906240083)
(-0.5486540198 -0.01231149957 0.00544425007)
(-0.5486540198 -0.01250869967 0.004974470008)
(-0.5486540198 -0.01268799976 0.004497560207)
(-0.5486540198 -0.01284909993 0.004014200065)
(-0.5486540198 -0.01299179997 0.00352509995)
(-0.5486540198 -0.01311589964 0.003030949971)
(-0.5486540198 -0.01322119962 0.002532450017)
(-0.5486540198 -0.0133074997 0.002030330012)
(-0.5486540198 -0.01337479986 0.001525299973)
(-0.5486540198 0.01345190033 0.0005094039952)
(-0.5486540198 0.01346150041 0)
(-0.5486540198 0.01342300046 0.001018080045)
(-0.5486540198 -0.01342300046 0.001018080045)
(-0.5486540198 -0.01345190033 0.0005094039952)
(-0.5486540198 0.01337479986 0.001525299973)
(-0.5486540198 -0.01346150041 -1.030770027e-17)
(-0.5486540198 -0.01345190033 -0.0005094039952)
(-0.5486540198 0.0133074997 0.002030330012)
(-0.5486540198 0.01322119962 0.002532450017)
(-0.5486540198 -0.01342300046 -0.001018080045)
(-0.5486540198 -0.01337479986 -0.001525299973)
(-0.5486540198 -0.0133074997 -0.002030330012)
(-0.5486540198 0.01311589964 0.003030949971)
(-0.5486540198 -0.01322119962 -0.002532450017)
(-0.5486540198 -0.01311589964 -0.003030949971)
(-0.5486540198 0.01299179997 0.00352509995)
(-0.5486540198 -0.01299179997 -0.00352509995)
(-0.5486540198 -0.01284909993 -0.004014200065)
(-0.5486540198 0.01284909993 0.004014200065)
(-0.5486540198 -0.01268799976 -0.004497560207)
(-0.5486540198 -0.01250869967 -0.004974470008)
(-0.5486540198 0.01268799976 0.004497560207)
(-0.5486540198 0.01250869967 0.004974470008)
(-0.5486540198 -0.01231149957 -0.00544425007)
(-0.5486540198 -0.01209670026 -0.005906240083)
(-0.5486540198 -0.01186450012 -0.006359760184)
(-0.5486540198 0.01231149957 0.00544425007)
(-0.5486540198 -0.01161529962 -0.006804179866)
(-0.5486540198 -0.01134950016 -0.007238849998)
(-0.5486540198 0.01209670026 0.005906240083)
(-0.5486540198 -0.01106750034 -0.007663149852)
(-0.5486540198 -0.01076960005 -0.008076470345)
(-0.5486540198 -0.01045619976 -0.008478219621)
(-0.5486540198 0.01186450012 0.006359760184)
(-0.5486540198 0.01161529962 0.006804179866)
(-0.5486540198 -0.01012790017 -0.008867830038)
(-0.5486540198 -0.009785089642 -0.009244729765)
(-0.5486540198 -0.009428249672 -0.00960838981)
(-0.5486540198 -0.009057899937 -0.009958289564)
(-0.5486540198 0.01134950016 0.007238849998)
(-0.5486540198 -0.008674579673 -0.01029390004)
(-0.5486540198 -0.008278829977 -0.01061480027)
(-0.5486540198 0.01106750034 0.007663149852)
(-0.5486540198 -0.007871219888 -0.01092050038)
(-0.5486540198 -0.007452330086 -0.01121050026)
(-0.5486540198 -0.007022770122 -0.01148450002)
(-0.5486540198 -0.006583150011 -0.01174199954)
(-0.5486540198 0.01076960005 0.008076470345)
(-0.5486540198 -0.006134099793 -0.01198269986)
(-0.5486540198 -0.005676260218 -0.01220630016)
(-0.5486540198 -0.005210290197 -0.01241230033)
(-0.5486540198 0.01045619976 0.008478219621)
(-0.5486540198 0.01012790017 0.008867830038)
(-0.5486540198 -0.004736859817 -0.01260059979)
(-0.5486540198 -0.004256640095 -0.01277079992)
(-0.5486540198 -0.003770329989 -0.01292280015)
(-0.5486540198 -0.003278610064 -0.0130562)
(-0.5486540198 0.009785089642 0.009244729765)
(-0.5486540198 -0.002782199997 -0.01317089982)
(-0.5486540198 -0.002281799912 -0.01326670032)
(-0.5486540198 -0.001778129954 -0.01334359962)
(-0.5486540198 -0.001271920046 -0.01340129972)
(-0.5486540198 0.009428249672 0.00960838981)
(-0.5486540198 -0.000763878983 -0.01343979966)
(-0.5486540198 -0.0002547480108 -0.01345910039)
(-0.5486540198 0.0002547480108 -0.01345910039)
(-0.5486540198 0.000763878983 -0.01343979966)
(-0.5486540198 0.001271920046 -0.01340129972)
(-0.5486540198 0.008674579673 0.01029390004)
(-0.5486540198 0.009057899937 0.009958289564)
(-0.5486540198 0.001778129954 -0.01334359962)
(-0.5486540198 0.002281799912 -0.01326670032)
(-0.5486540198 0.002782199997 -0.01317089982)
(-0.5486540198 0.003278610064 -0.0130562)
(-0.5486540198 0.003770329989 -0.01292280015)
(-0.5486540198 0.008278829977 0.01061480027)
(-0.5486540198 0.004256640095 -0.01277079992)
(-0.5486540198 0.004736859817 -0.01260059979)
(-0.5486540198 0.005210290197 -0.01241230033)
(-0.5486540198 0.005676260218 -0.01220630016)
(-0.5486540198 0.006134099793 -0.01198269986)
(-0.5486540198 0.007871219888 0.01092050038)
(-0.5486540198 0.006583150011 -0.01174199954)
(-0.5486540198 0.007022770122 -0.01148450002)
(-0.5486540198 0.007452330086 -0.01121050026)
(-0.5486540198 0.007871219888 -0.01092050038)
(-0.5486540198 0.008278829977 -0.01061480027)
(-0.5486540198 0.008674579673 -0.01029390004)
(-0.5486540198 0.009057899937 -0.009958289564)
(-0.5486540198 0.009428249672 -0.00960838981)
(-0.5486540198 0.007452330086 0.01121050026)
(-0.5486540198 0.009785089642 -0.009244729765)
(-0.5486540198 0.01012790017 -0.008867830038)
(-0.5486540198 0.01045619976 -0.008478219621)
(-0.5486540198 0.01076960005 -0.008076470345)
(-0.5486540198 0.01106750034 -0.007663149852)
(-0.5486540198 0.01134950016 -0.007238849998)
(-0.5486540198 0.01161529962 -0.006804179866)
(-0.5486540198 0.01186450012 -0.006359760184)
(-0.5486540198 0.01209670026 -0.005906240083)
(-0.5486540198 0.01231149957 -0.00544425007)
(-0.5486540198 0.01250869967 -0.004974470008)
(-0.5486540198 0.01268799976 -0.004497560207)
(-0.5486540198 0.01284909993 -0.004014200065)
(-0.5486540198 0.01299179997 -0.00352509995)
(-0.5486540198 0.01311589964 -0.003030949971)
(-0.5486540198 0.007022770122 0.01148450002)
(-0.5486540198 0.006583150011 0.01174199954)
(-0.5486540198 0.01322119962 -0.002532450017)
(-0.5486540198 0.0133074997 -0.002030330012)
(-0.5486540198 0.01337479986 -0.001525299973)
(-0.5486540198 0.01342300046 -0.001018080045)
(-0.5486540198 0.01345190033 -0.0005094039952)
(-0.5486540198 0.006134099793 0.01198269986)
(-0.5486540198 0.005676260218 0.01220630016)
(-0.5486540198 0.005210290197 0.01241230033)
(-0.5486540198 0.004736859817 0.01260059979)
(-0.5486540198 0.004256640095 0.01277079992)
(-0.5486540198 0.003770329989 0.01292280015)
(-0.5486540198 0.003278610064 0.0130562)
(-0.5486540198 0.002782199997 0.01317089982)
(-0.5486540198 0.002281799912 0.01326670032)
(-0.5486540198 0.001778129954 0.01334359962)
(-0.5486540198 0.001271920046 0.01340129972)
(-0.5486540198 0.000763878983 0.01343979966)
(-0.5486540198 0.0002547480108 0.01345910039)
(-0.5486540198 -0.0002547480108 0.01345910039)
(-0.5486540198 -0.000763878983 0.01343979966)
(-0.5486540198 -0.001271920046 0.01340129972)
(-0.5486540198 -0.001778129954 0.01334359962)
(-0.5486540198 -0.002281799912 0.01326670032)
(-0.5486540198 -0.002782199997 0.01317089982)
(-0.5486540198 -0.003278610064 0.0130562)
(-0.5486540198 -0.003770329989 0.01292280015)
(-0.5486540198 -0.004256640095 0.01277079992)
(-0.5486540198 -0.004736859817 0.01260059979)
(-0.5486540198 -0.005210290197 0.01241230033)
(-0.5486540198 -0.005676260218 0.01220630016)
(-0.5486540198 -0.006134099793 0.01198269986)
(-0.5486540198 -0.006583150011 0.01174199954)
(-0.5486540198 -0.007022770122 0.01148450002)
(-0.5486540198 -0.007452330086 0.01121050026)
(-0.5486540198 -0.007871219888 0.01092050038)
(-0.5486540198 -0.008278829977 0.01061480027)
(-0.4049240053 0.08461540192 0.0009559040191)
(-0.4054340124 0.08461540192 0.001319770003)
(-0.4064440131 0.08461540192 0.00179429003)
(-0.4074540138 0.08461540192 0.002120190067)
(-0.4084640145 0.08461540192 0.002363709966)
(-0.4104839861 0.08461540192 0.002698499942)
(-0.4125039876 0.08461540192 0.002896379912)
(-0.4145140052 0.08461540192 0.002999369986)
(-0.4165340066 0.08461540192 0.003029650077)
(-0.4205740094 0.08461540192 0.002929500071)
(-0.4246140122 0.08461540192 0.002672249917)
(-0.4286539853 0.08461540192 0.002303540008)
(-0.4326939881 0.08461540192 0.001849620021)
(-0.4367339909 0.08461540192 0.001324209967)
(-0.44076401 0.08461540192 0.0007309620269)
(-0.4427840114 0.08461540192 0.0004070769937)
(-0.4427840114 0.08461540192 -0.0004070769937)
(-0.44076401 0.08461540192 -0.0007309620269)
(-0.4367339909 0.08461540192 -0.001324209967)
(-0.4326939881 0.08461540192 -0.001849620021)
(-0.4286539853 0.08461540192 -0.002303540008)
(-0.4246140122 0.08461540192 -0.002672249917)
(-0.4205740094 0.08461540192 -0.002929500071)
(-0.4165340066 0.08461540192 -0.003029650077)
(-0.4145140052 0.08461540192 -0.002999369986)
(-0.4125039876 0.08461540192 -0.002896379912)
(-0.4104839861 0.08461540192 -0.002698499942)
(-0.4084640145 0.08461540192 -0.002363709966)
(-0.4074540138 0.08461540192 -0.002120190067)
(-0.4064440131 0.08461540192 -0.00179429003)
(-0.4054340124 0.08461540192 -0.001319770003)
(-0.4049240053 0.08461540192 -0.0009559040191)
(-0.4367339909 -0.08461540192 0.001324209967)
(-0.44076401 -0.08461540192 0.0007309620269)
(-0.4326939881 -0.08461540192 0.001849620021)
(-0.4427840114 -0.08461540192 0.0004070769937)
(-0.4286539853 -0.08461540192 0.002303540008)
(-0.4246140122 -0.08461540192 0.002672249917)
(-0.4427840114 -0.08461540192 -0.0004070769937)
(-0.4205740094 -0.08461540192 0.002929500071)
(-0.44076401 -0.08461540192 -0.0007309620269)
(-0.4165340066 -0.08461540192 0.003029650077)
(-0.4367339909 -0.08461540192 -0.001324209967)
(-0.4145140052 -0.08461540192 0.002999369986)
(-0.4326939881 -0.08461540192 -0.001849620021)
(-0.4125039876 -0.08461540192 0.002896379912)
(-0.4286539853 -0.08461540192 -0.002303540008)
(-0.4104839861 -0.08461540192 0.002698499942)
(-0.4246140122 -0.08461540192 -0.002672249917)
(-0.4084640145 -0.08461540192 0.002363709966)
(-0.4205740094 -0.08461540192 -0.002929500071)
(-0.4074540138 -0.08461540192 0.002120190067)
(-0.4165340066 -0.08461540192 -0.003029650077)
(-0.4064440131 -0.08461540192 0.00179429003)
(-0.4145140052 -0.08461540192 -0.002999369986)
(-0.4054340124 -0.08461540192 0.001319770003)
(-0.4125039876 -0.08461540192 -0.002896379912)
(-0.4049240053 -0.08461540192 0.0009559040191)
(-0.4104839861 -0.08461540192 -0.002698499942)
(-0.4084640145 -0.08461540192 -0.002363709966)
(-0.4049240053 -0.08461540192 -0.0009559040191)
(-0.4074540138 -0.08461540192 -0.002120190067)
(-0.4054340124 -0.08461540192 -0.001319770003)
(-0.4064440131 -0.08461540192 -0.00179429003)
(-0.4367339909 0.001324209967 0.08461540192)
(-0.44076401 0.0007309620269 0.08461540192)
(-0.4326939881 0.001849620021 0.08461540192)
(-0.4286539853 0.002303540008 0.08461540192)
(-0.4246140122 0.002672249917 0.08461540192)
(-0.4205740094 0.002929500071 0.08461540192)
(-0.4165340066 0.003029650077 0.08461540192)
(-0.4145140052 0.002999369986 0.08461540192)
(-0.4125039876 0.002896379912 0.08461540192)
(-0.4104839861 0.002698499942 0.08461540192)
(-0.4084640145 0.002363709966 0.08461540192)
(-0.4074540138 0.002120190067 0.08461540192)
(-0.4064440131 0.00179429003 0.08461540192)
(-0.4054340124 0.001319770003 0.08461540192)
(-0.4049240053 0.0009559040191 0.08461540192)
(-0.4049240053 -0.0009559040191 0.08461540192)
(-0.4054340124 -0.001319770003 0.08461540192)
(-0.4064440131 -0.00179429003 0.08461540192)
(-0.4074540138 -0.002120190067 0.08461540192)
(-0.4084640145 -0.002363709966 0.08461540192)
(-0.4104839861 -0.002698499942 0.08461540192)
(-0.4125039876 -0.002896379912 0.08461540192)
(-0.4145140052 -0.002999369986 0.08461540192)
(-0.4165340066 -0.003029650077 0.08461540192)
(-0.4205740094 -0.002929500071 0.08461540192)
(-0.4246140122 -0.002672249917 0.08461540192)
(-0.4286539853 -0.002303540008 0.08461540192)
(-0.4326939881 -0.001849620021 0.08461540192)
(-0.4367339909 -0.001324209967 0.08461540192)
(-0.44076401 -0.0007309620269 0.08461540192)
(-0.4427840114 -0.0004070769937 0.08461540192)
(-0.4427840114 0.0004070769937 0.08461540192)
)


// edges:

447
(
(16 17)
(18 16)
(19 18)
(20 19)
(21 20)
(22 21)
(23 22)
(24 23)
(25 24)
(26 25)
(27 26)
(28 27)
(29 28)
(30 29)
(31 30)
(8 31)
(32 8)
(33 32)
(34 33)
(35 34)
(36 35)
(37 36)
(38 37)
(39 38)
(40 39)
(41 40)
(42 41)
(43 42)
(44 43)
(45 44)
(46 45)
(47 46)
(9 47)
(17 9)
(48 49)
(10 48)
(50 51)
(52 53)
(49 52)
(54 55)
(53 54)
(56 57)
(58 50)
(59 60)
(55 61)
(61 62)
(63 58)
(64 59)
(62 65)
(66 64)
(57 67)
(68 63)
(65 69)
(69 70)
(71 68)
(72 66)
(73 72)
(67 74)
(70 75)
(76 73)
(77 71)
(75 78)
(78 79)
(74 80)
(81 82)
(83 84)
(85 77)
(11 81)
(82 83)
(80 86)
(87 11)
(88 89)
(84 88)
(90 87)
(91 85)
(92 93)
(86 94)
(89 95)
(93 12)
(96 90)
(97 91)
(94 13)
(98 97)
(99 100)
(101 102)
(13 98)
(100 103)
(104 101)
(105 104)
(103 106)
(107 105)
(108 107)
(109 108)
(110 111)
(112 109)
(113 112)
(111 114)
(115 113)
(95 99)
(116 96)
(102 116)
(106 110)
(114 117)
(118 56)
(117 119)
(79 92)
(120 115)
(119 14)
(121 120)
(12 76)
(14 121)
(122 10)
(123 122)
(124 125)
(126 123)
(127 126)
(15 124)
(128 127)
(129 128)
(130 131)
(125 130)
(132 15)
(133 134)
(131 133)
(135 132)
(136 129)
(134 137)
(138 136)
(139 140)
(140 135)
(141 138)
(137 142)
(143 141)
(142 118)
(51 144)
(144 139)
(60 143)
(0 145)
(146 0)
(147 146)
(145 148)
(149 147)
(148 150)
(151 149)
(150 152)
(153 151)
(152 154)
(155 153)
(154 156)
(157 155)
(156 158)
(159 157)
(158 160)
(161 159)
(162 161)
(160 163)
(163 164)
(165 162)
(164 166)
(167 165)
(168 167)
(166 169)
(169 170)
(171 168)
(170 172)
(173 171)
(174 173)
(172 175)
(175 176)
(1 174)
(176 1)
(1 8)
(0 9)
(177 178)
(179 177)
(180 179)
(181 180)
(182 181)
(183 182)
(184 183)
(185 184)
(186 185)
(187 186)
(188 187)
(189 188)
(190 189)
(191 190)
(192 191)
(193 192)
(194 193)
(195 194)
(196 195)
(197 196)
(198 199)
(200 198)
(201 197)
(202 201)
(203 200)
(204 202)
(205 204)
(206 203)
(207 206)
(208 205)
(209 208)
(210 209)
(211 207)
(212 210)
(213 212)
(214 211)
(215 213)
(216 215)
(217 214)
(218 216)
(219 218)
(220 217)
(221 220)
(222 219)
(223 222)
(224 223)
(225 221)
(226 224)
(227 226)
(228 225)
(229 227)
(230 229)
(231 230)
(232 228)
(233 232)
(234 231)
(235 234)
(236 235)
(237 236)
(238 233)
(239 237)
(240 239)
(241 238)
(242 240)
(243 242)
(244 243)
(245 244)
(246 241)
(247 245)
(248 247)
(249 248)
(250 246)
(251 250)
(252 249)
(253 252)
(254 253)
(255 254)
(256 251)
(257 255)
(258 257)
(259 258)
(260 259)
(261 256)
(262 260)
(263 262)
(264 263)
(265 264)
(266 265)
(267 268)
(268 261)
(269 266)
(270 269)
(271 270)
(272 271)
(273 272)
(274 267)
(275 273)
(276 275)
(277 276)
(278 277)
(279 278)
(280 274)
(281 279)
(282 281)
(283 282)
(284 283)
(285 284)
(286 285)
(287 286)
(288 287)
(289 280)
(290 288)
(291 290)
(292 291)
(293 292)
(294 293)
(295 294)
(296 295)
(297 296)
(298 297)
(299 298)
(300 299)
(301 300)
(302 301)
(303 302)
(304 303)
(305 289)
(306 305)
(307 304)
(308 307)
(309 308)
(310 309)
(311 310)
(199 311)
(312 306)
(313 312)
(314 313)
(315 314)
(316 315)
(317 316)
(318 317)
(319 318)
(320 319)
(321 320)
(322 321)
(323 322)
(324 323)
(325 324)
(326 325)
(327 326)
(328 327)
(329 328)
(330 329)
(331 330)
(332 331)
(333 332)
(334 333)
(335 334)
(336 335)
(337 336)
(338 337)
(339 338)
(340 339)
(341 340)
(342 341)
(178 342)
(2 10)
(343 2)
(344 343)
(345 344)
(346 345)
(347 346)
(348 347)
(349 348)
(350 349)
(351 350)
(352 351)
(353 352)
(354 353)
(355 354)
(356 355)
(357 356)
(358 357)
(3 358)
(12 3)
(359 3)
(360 359)
(361 360)
(362 361)
(363 362)
(364 363)
(365 364)
(366 365)
(367 366)
(368 367)
(369 368)
(370 369)
(371 370)
(372 371)
(373 372)
(374 373)
(2 374)
(375 376)
(377 375)
(376 378)
(379 377)
(378 4)
(4 13)
(380 379)
(4 381)
(382 380)
(381 383)
(384 382)
(383 385)
(386 384)
(385 387)
(388 386)
(387 389)
(390 388)
(389 391)
(392 390)
(391 393)
(394 392)
(393 395)
(396 394)
(395 397)
(398 396)
(397 399)
(400 398)
(399 401)
(15 5)
(5 400)
(401 402)
(403 5)
(402 404)
(405 403)
(404 406)
(406 405)
(407 408)
(409 407)
(410 409)
(411 410)
(412 411)
(413 412)
(414 413)
(415 414)
(416 415)
(417 416)
(418 417)
(419 418)
(420 419)
(421 420)
(11 6)
(6 421)
(422 6)
(423 422)
(424 423)
(425 424)
(426 425)
(427 426)
(428 427)
(429 428)
(430 429)
(431 430)
(432 431)
(433 432)
(434 433)
(435 434)
(436 435)
(437 436)
(7 437)
(14 7)
(438 7)
(408 438)
)

// * * * * * * * * * * * * * * * * * * * * * * * * * * * * * * * * * * * * * //


// ************************************************************************* //
