/*--------------------------------*- C++ -*----------------------------------*\
| =========                 |                                                 |
| \\      /  F ield         | OpenFOAM: The Open Source CFD Toolbox           |
|  \\    /   O peration     | Version:  v1706                                 |
|   \\  /    A nd           | Web:      www.OpenFOAM.com                      |
|    \\/     M anipulation  |                                                 |
\*---------------------------------------------------------------------------*/
FoamFile
{
    version     2.0;
    format      ascii;
    class       featureEdgeMesh;
    location    "constant/triSurface";
    object      glider.eMesh;
}
// * * * * * * * * * * * * * * * * * * * * * * * * * * * * * * * * * * * * * //


// points:

605
(
(2.0625 -1.700000048 8.354429954e-16)
(1.912500024 -1.700000048 8.021360188e-16)
(2.033080101 -0.0005000000237 0.2849999964)
(2.033080101 0.0005000000237 0.2849999964)
(2.0625 1.700000048 8.04911984e-17)
(1.912500024 1.700000048 4.718449972e-17)
(1.956089973 -0.0005000000237 0.03674050048)
(1.956089973 0.0005000000237 0.03674190119)
(1.962100029 -1.700000048 -0.01345879957)
(1.95528996 -1.700000048 -0.01349330042)
(1.949030042 -1.700000048 -0.01332850009)
(1.969589949 -1.700000048 -0.01320710033)
(1.978010058 -1.700000048 -0.01270470023)
(1.987130046 -1.700000048 -0.01194650028)
(1.997320056 -1.700000048 -0.01088269986)
(2.009710073 -1.700000048 -0.009336310439)
(2.023659945 -1.700000048 -0.007322459947)
(2.040329933 -1.700000048 -0.004545629956)
(2.041510105 -1.700000048 0.00433519017)
(2.023960114 -1.700000048 0.007275709882)
(2.008019924 -1.700000048 0.009561760351)
(1.993909955 -1.700000048 0.01126219984)
(1.983170033 -1.700000048 0.01230040006)
(1.972890019 -1.700000048 0.01303560007)
(1.96273005 -1.700000048 0.01344580017)
(1.95528996 -1.700000048 0.01349330042)
(1.948719978 -1.700000048 0.01331489999)
(1.942749977 -1.700000048 0.01293110009)
(1.938050032 -1.700000048 0.01244539954)
(1.934049964 -1.700000048 0.01187700033)
(1.930680037 -1.700000048 0.01126210019)
(1.927680016 -1.700000048 0.01058259979)
(1.925060034 -1.700000048 0.00986358989)
(1.922610044 -1.700000048 0.009057950228)
(1.920600057 -1.700000048 0.008263479918)
(1.918759942 -1.700000048 0.007391979918)
(1.917410016 -1.700000048 0.006635270081)
(1.91621995 -1.700000048 0.00586616993)
(1.915230036 -1.700000048 0.005116010085)
(1.91418004 -1.700000048 0.004010059871)
(1.913540006 -1.700000048 0.002953979885)
(1.912969947 -1.700000048 0.001517869998)
(1.912969947 -1.700000048 -0.001517639961)
(1.913409948 -1.700000048 -0.002669200068)
(1.914090037 -1.700000048 -0.003884060076)
(1.914880037 -1.700000048 -0.004796210211)
(1.916090012 -1.700000048 -0.005770389922)
(1.91700995 -1.700000048 -0.006384179927)
(1.918220043 -1.700000048 -0.007102760021)
(1.919450045 -1.700000048 -0.007737500127)
(1.920740008 -1.700000048 -0.00832297001)
(1.92245996 -1.700000048 -0.00900330022)
(1.924769998 -1.700000048 -0.00977415964)
(1.927379966 -1.700000048 -0.01050589979)
(1.930989981 -1.700000048 -0.01132529974)
(1.934350014 -1.700000048 -0.01192650013)
(1.938199997 -1.700000048 -0.01246370003)
(1.943390012 -1.700000048 -0.01298329979)
(2.054660082 -1.67719996 8.286389915e-16)
(2.047240019 -1.655599952 8.221959825e-16)
(2.038990021 -1.631600022 8.150350071e-16)
(2.031559944 -1.610000014 8.085889805e-16)
(2.024549961 -1.589599967 8.0250199e-16)
(2.016299963 -1.565600038 7.953420205e-16)
(2.00680995 -1.537999988 7.871060015e-16)
(1.99774003 -1.511600018 7.792300245e-16)
(1.987840056 -1.482800007 7.706369811e-16)
(1.977110028 -1.451599956 7.613269773e-16)
(1.965559959 -1.417999983 7.513010189e-16)
(1.952360034 -1.379600048 7.398439983e-16)
(1.940400004 -1.344799995 7.294610155e-16)
(1.92719996 -1.306399941 7.18002989e-16)
(1.912760019 -1.264400005 7.054709778e-16)
(1.897909999 -1.221199989 6.92581995e-16)
(1.881000042 -1.172000051 6.779020141e-16)
(1.860380054 -1.111999989 6.600009786e-16)
(1.838930011 -1.049600005 6.413829827e-16)
(1.817890048 -0.9883999825 6.231220111e-16)
(1.793550014 -0.9175999761 6.019960036e-16)
(1.765910029 -0.837199986 5.780070246e-16)
(1.741160035 -0.7652000189 5.565239927e-16)
(1.719709992 -0.7027999759 5.379049909e-16)
(1.702800035 -0.6535999775 5.232260158e-16)
(1.68877995 -0.6128000021 5.110529877e-16)
(1.677219987 -0.5792000294 5.010260234e-16)
(1.666499972 -0.5479999781 4.917179784e-16)
(1.657840014 -0.5228000283 4.841990257e-16)
(1.649999976 -0.5 4.773959747e-16)
(1.643380046 -0.4793269932 4.713359834e-16)
(1.639610052 -0.4605959952 4.663390184e-16)
(1.639389992 -0.4433279932 4.624560076e-16)
(1.642560005 -0.4280000031 4.5975699e-16)
(1.649580002 -0.4122099876 4.57809026e-16)
(1.663980007 -0.3926120102 4.566549966e-16)
(1.68077004 -0.3763670027 4.567760164e-16)
(1.703199983 -0.359160006 4.579359751e-16)
(1.730890036 -0.341452986 4.601529779e-16)
(1.770140052 -0.3198640049 4.640739993e-16)
(1.81329 -0.2986649871 4.689479857e-16)
(1.860839963 -0.2768569887 4.746639758e-16)
(1.917950034 -0.2514519989 4.817039843e-16)
(1.984509945 -0.2213039994 4.897890196e-16)
(2.044709921 -0.1917220056 4.965879943e-16)
(2.094120026 -0.1637299955 5.013430255e-16)
(2.13677001 -0.1337559968 5.041579807e-16)
(1.938910007 0.2421050072 3.767659989e-16)
(2.005559921 0.2113250047 3.98399988e-16)
(1.874989986 0.270529002 3.562620047e-16)
(1.820490003 0.2952820063 3.386639952e-16)
(1.772009969 0.3189029992 3.226549931e-16)
(1.956089973 -0.0005000000237 0.03674999997)
(1.956089973 0.0001649180049 0.03674430028)
(1.956089973 8.15913999e-18 0.03674549982)
(2.164550066 -0.1075420007 5.045060053e-16)
(2.057060003 0.1851429939 4.156489934e-16)
(1.734969974 0.3390580118 3.099550046e-16)
(1.704579949 0.3582029939 2.989559906e-16)
(1.956249952 -0.0005000000237 0.03725000098)
(1.956249952 0.0005000000237 0.03725000098)
(2.182450056 -0.08313769847 5.030620259e-16)
(2.139309883 0.1316709965 4.457850228e-16)
(2.166389942 0.1054299995 4.576250081e-16)
(2.102220058 0.1585959941 4.315709893e-16)
(1.680209994 0.3768439889 2.894050059e-16)
(1.956400037 -0.0005000000237 0.03774999827)
(1.956400037 0.0005000000237 0.03774999827)
(2.192929983 -0.06010629982 5.002750228e-16)
(2.198539972 -0.03473849967 4.958870216e-16)
(2.200000048 0 4.884979826e-16)
(2.199009895 0.03040499985 4.815270073e-16)
(2.194279909 0.05580100045 4.748379881e-16)
(2.183969975 0.08046989888 4.670710137e-16)
(1.662709951 0.3940460086 2.816999972e-16)
(1.650130033 0.4112539887 2.750859934e-16)
(1.956640005 -0.0005000000237 0.03849999979)
(1.956560016 0.0005000000237 0.03824999928)
(1.643210053 0.4260849953 2.702559997e-16)
(1.95678997 -0.0005000000237 0.0390000008)
(1.95678997 0.0005000000237 0.0390000008)
(1.639549971 0.4418900013 2.659339877e-16)
(1.957100034 -0.0005000000237 0.03999999911)
(1.957020044 0.0005000000237 0.0397499986)
(1.639510036 0.4596360028 2.619849877e-16)
(1.643249989 0.478846997 2.585489986e-16)
(1.957409978 -0.0005000000237 0.04100000113)
(1.957720041 -0.0005000000237 0.04199999943)
(1.958109975 -0.0005000000237 0.04324999824)
(1.957329988 0.0005000000237 0.04075000063)
(1.649999976 0.5 2.553509992e-16)
(1.658249974 0.523999989 2.518539972e-16)
(1.979740024 -0.0005000000237 0.112999998)
(1.983540058 -0.0005000000237 0.1252499968)
(1.976099968 -0.0005000000237 0.1012500003)
(1.972839952 -0.0005000000237 0.09075000137)
(1.959810019 -0.0005000000237 0.04874999821)
(1.960590005 -0.0005000000237 0.05124999955)
(1.961369991 -0.0005000000237 0.05375000089)
(1.958570004 -0.0005000000237 0.04475000128)
(1.957720041 0.0005000000237 0.04199999943)
(1.958109975 0.0005000000237 0.04324999824)
(1.668560028 0.55400002 2.474820102e-16)
(1.679290056 0.5852000117 2.429369902e-16)
(1.987179995 -0.0005000000237 0.1369999945)
(1.980200052 0.0005000000237 0.1145000011)
(1.983929992 0.0005000000237 0.1264999956)
(1.976480007 0.0005000000237 0.1024999991)
(1.973150015 0.0005000000237 0.0917500034)
(1.970510006 0.0005000000237 0.08325000107)
(1.970199943 -0.0005000000237 0.08224999905)
(1.967800021 -0.0005000000237 0.07450000197)
(1.966019988 -0.0005000000237 0.06875000149)
(1.964619994 -0.0005000000237 0.06424999982)
(1.963379979 -0.0005000000237 0.06024999917)
(1.962219954 -0.0005000000237 0.05649999902)
(1.959890008 0.0005000000237 0.04899999872)
(1.960669994 0.0005000000237 0.05150000006)
(1.959190011 -0.0005000000237 0.04675000161)
(1.959190011 0.0005000000237 0.04675000161)
(1.961439967 0.0005000000237 0.0540000014)
(1.958649993 0.0005000000237 0.04500000179)
(1.694139957 0.6284000278 2.366420002e-16)
(1.709810019 0.6740000248 2.299959944e-16)
(1.727959991 0.7268000245 2.223019971e-16)
(1.99206996 -0.0005000000237 0.1527500004)
(1.987720013 0.0005000000237 0.1387500018)
(1.968029976 0.0005000000237 0.07524999976)
(1.966169953 0.0005000000237 0.0692500025)
(1.964779973 0.0005000000237 0.06475000083)
(1.963539958 0.0005000000237 0.06075000018)
(1.962370038 0.0005000000237 0.05700000003)
(1.748589993 0.7868000269 2.13559995e-16)
(1.997259974 -0.0005000000237 0.1694999933)
(1.992689967 0.0005000000237 0.1547500044)
(1.774569988 0.8623999953 2.025420022e-16)
(1.802209973 0.9427999854 1.908269939e-16)
(2.002530098 -0.0005000000237 0.186499998)
(1.997959971 0.0005000000237 0.1717499942)
(2.003070116 0.0005000000237 0.1882500052)
(1.827379942 1.016000032 1.801629947e-16)
(2.006639957 -0.0005000000237 0.1997500062)
(2.007179976 0.0005000000237 0.2014999986)
(1.84758997 1.074800014 1.715939991e-16)
(2.010829926 -0.0005000000237 0.2132499963)
(2.011290073 0.0005000000237 0.2147500068)
(1.864910007 1.125200033 1.642490058e-16)
(2.014240026 -0.0005000000237 0.2242500037)
(2.014630079 0.0005000000237 0.2255000025)
(1.881000042 1.172000051 1.574299936e-16)
(2.016639948 -0.0005000000237 0.2319999933)
(2.016949892 0.0005000000237 0.2329999954)
(2.019350052 0.0005000000237 0.2407499999)
(1.896679997 1.217599988 1.507859995e-16)
(2.019040108 -0.0005000000237 0.2397499979)
(2.021290064 0.0005000000237 0.2469999939)
(2.02105999 -0.0005000000237 0.2462500036)
(1.911110044 1.259600043 1.446640027e-16)
(1.960389972 -0.01191740017 0.2849999964)
(1.952270031 -0.01198509987 0.2849999964)
(1.969149947 -0.01150189992 0.2849999964)
(1.977689981 -0.0107934 0.2849999964)
(1.985479951 -0.009908949956 0.2849999964)
(2.022840023 -0.0005000000237 0.2520000041)
(2.023080111 0.0005000000237 0.2527500093)
(1.967039943 0.01163179986 0.2849999964)
(1.975280046 0.01102180034 0.2849999964)
(1.982149959 0.0103128003 0.2849999964)
(1.959900022 0.01193050016 0.2849999964)
(1.953510046 0.01199700031 0.2849999964)
(1.947720051 0.01186089963 0.2849999964)
(1.942469954 0.01153079979 0.2849999964)
(1.937649965 0.01101659983 0.2849999964)
(1.925959945 1.302800059 1.383689994e-16)
(1.945680022 -0.01175870001 0.2849999964)
(1.940330029 -0.01133009978 0.2849999964)
(1.992200017 -0.008977480233 0.2849999964)
(1.998029947 -0.008051780052 0.2849999964)
(2.003149986 -0.007154869847 0.2849999964)
(2.007280111 -0.006375490222 0.2849999964)
(2.010610104 -0.005712309852 0.2849999964)
(2.013740063 -0.005061889999 0.2849999964)
(2.016669989 -0.004429100081 0.2849999964)
(2.019000053 -0.003910080064 0.2849999964)
(2.021430016 -0.003355540102 0.2849999964)
(2.023410082 -0.002890639938 0.2849999964)
(2.025110006 -0.002486449899 0.2849999964)
(2.026400089 -0.002175119938 0.2849999964)
(2.027539968 -0.00189487997 0.2849999964)
(2.028680086 -0.001614789944 0.2849999964)
(2.029419899 -0.001428249991 0.2849999964)
(2.030169964 -0.00124192005 0.2849999964)
(2.030659914 -0.001117859967 0.2849999964)
(2.031150103 -0.0009939350421 0.2849999964)
(2.031630039 -0.0008701700135 0.2849999964)
(2.032000065 -0.0007774599944 0.2849999964)
(2.032360077 -0.0006848570192 0.2849999964)
(2.032599926 -0.000623185013 0.2849999964)
(2.032840014 -0.0005615649861 0.2849999964)
(2.032959938 -0.0005307749962 0.2849999964)
(2.033080101 -0.000322500011 0.2849999964)
(2.033080101 -0.0001544999977 0.2849999964)
(2.033080101 6.328269837e-17 0.2849999964)
(2.033080101 0.0001674999949 0.2849999964)
(2.033080101 0.0003375000088 0.2849999964)
(2.032959938 0.0005307749962 0.2849999964)
(2.032720089 0.0005923680146 0.2849999964)
(2.032480001 0.0006540140021 0.2849999964)
(2.032119989 0.0007465800154 0.2849999964)
(2.031759977 0.0008392549935 0.2849999964)
(2.031389952 0.0009320320096 0.2849999964)
(2.030900002 0.001055879984 0.2849999964)
(2.030289888 0.001210900024 0.2849999964)
(2.02967 0.001366110053 0.2849999964)
(2.028800011 0.001583680045 0.2849999964)
(2.027920008 0.001801489969 0.2849999964)
(2.026910067 0.002050559968 0.2849999964)
(2.025759935 0.002330810064 0.2849999964)
(2.024460077 0.002642010106 0.2849999964)
(2.023020029 0.0029837701 0.2849999964)
(2.021290064 0.003386460012 0.2849999964)
(2.019269943 0.003848690074 0.2849999964)
(2.01722002 0.004307469819 0.2849999964)
(2.014859915 0.00482206 0.2849999964)
(2.012320042 0.005359299947 0.2849999964)
(2.009310007 0.005974039901 0.2849999964)
(2.005520105 0.006713570096 0.2849999964)
(2.001199961 0.00750473002 0.2849999964)
(1.995589972 0.008452230133 0.2849999964)
(1.98924005 0.00940543972 0.2849999964)
(1.933719993 0.01041589957 0.2849999964)
(1.929939985 0.009645749815 0.2849999964)
(1.926470041 0.008724990301 0.2849999964)
(1.923840046 0.007838919759 0.2849999964)
(1.921609998 0.006908810232 0.2849999964)
(1.919690013 0.005916059949 0.2849999964)
(1.918089986 0.004869310185 0.2849999964)
(1.91692996 0.003888230072 0.2849999964)
(1.916100025 0.002952599898 0.2849999964)
(1.91553998 0.002073110081 0.2849999964)
(1.915150046 0.001101500005 0.2849999964)
(1.914999962 6.328269837e-17 0.2849999964)
(1.915140033 -0.001062370022 0.2849999964)
(1.91553998 -0.002073110081 0.2849999964)
(1.916129947 -0.002990460023 0.2849999964)
(1.916900039 -0.00385127007 0.2849999964)
(1.917950034 -0.00476199016 0.2849999964)
(1.919399977 -0.005745110102 0.2849999964)
(1.921000004 -0.006617169827 0.2849999964)
(1.92306006 -0.007536380086 0.2849999964)
(1.925410032 -0.008391640149 0.2849999964)
(1.928050041 -0.009175109677 0.2849999964)
(1.931720018 -0.0100360997 0.2849999964)
(1.935819983 -0.0107594002 0.2849999964)
(2.024240017 -0.0005000000237 0.2565000057)
(2.024389982 0.0005000000237 0.2569999993)
(1.940400004 1.344799995 1.322499937e-16)
(2.032999992 0.0005000000237 0.2847500145)
(2.032999992 -0.0005000000237 0.2847500145)
(2.025399923 -0.0005000000237 0.2602500021)
(2.025559902 0.0005000000237 0.2607499957)
(1.953600049 1.383200049 1.266540043e-16)
(2.032840014 0.0005000000237 0.2842499912)
(2.032919884 -0.0005000000237 0.2845000029)
(2.026489973 -0.0005000000237 0.2637499869)
(2.026639938 0.0005000000237 0.2642500103)
(1.965559959 1.417999983 1.215830034e-16)
(2.032769918 0.0005000000237 0.2840000093)
(2.032840014 -0.0005000000237 0.2842499912)
(2.027420044 -0.0005000000237 0.2667500079)
(2.027570009 0.0005000000237 0.2672500014)
(1.976289988 1.449200034 1.17037004e-16)
(2.032690048 0.0005000000237 0.2837499976)
(2.032769918 -0.0005000000237 0.2840000093)
(2.03260994 -0.0005000000237 0.2834999859)
(2.028189898 -0.0005000000237 0.2692500055)
(2.028350115 0.0005000000237 0.269749999)
(2.029119968 0.0005000000237 0.2722499967)
(1.987840056 1.482800007 1.121409948e-16)
(2.032530069 0.0005000000237 0.2832500041)
(2.032459974 0.0005000000237 0.2829999924)
(2.032459974 -0.0005000000237 0.2829999924)
(2.029050112 -0.0005000000237 0.2720000148)
(2.029740095 0.0005000000237 0.2742500007)
(2.02967 -0.0005000000237 0.273999989)
(1.998149991 1.512799978 1.077690011e-16)
(2.032219887 0.0005000000237 0.2822499871)
(2.031990051 0.0005000000237 0.2815000117)
(2.032299995 -0.0005000000237 0.2824999988)
(2.03215003 -0.0005000000237 0.2820000052)
(2.030359983 0.0005000000237 0.2762500048)
(2.030210018 -0.0005000000237 0.2757500112)
(2.008049965 1.541599989 1.035729984e-16)
(2.031759977 0.0005000000237 0.2807500064)
(2.031529903 0.0005000000237 0.2800000012)
(2.031990051 -0.0005000000237 0.2815000117)
(2.031759977 -0.0005000000237 0.2807500064)
(2.031450033 -0.0005000000237 0.2797499895)
(2.031140089 -0.0005000000237 0.2787500024)
(2.030750036 -0.0005000000237 0.2775000036)
(2.030750036 0.0005000000237 0.2775000036)
(2.017119884 1.567999959 9.972470274e-17)
(2.031140089 0.0005000000237 0.2787500024)
(2.027029991 1.59679997 9.553030147e-17)
(2.035279989 1.620800018 9.203300169e-17)
(2.042700052 1.642400026 8.888450082e-17)
(2.049710035 1.662799954 8.591130267e-17)
(2.056309938 1.682000041 8.311349991e-17)
(2.02241993 1.700000048 -0.007511590142)
(2.041769981 1.700000048 -0.004287960008)
(2.008090019 1.700000048 -0.009552559815)
(1.996500015 1.700000048 -0.01097610034)
(1.986430049 1.700000048 -0.01201109961)
(1.977280021 1.700000048 -0.01275660004)
(1.969040036 1.700000048 -0.01323230006)
(2.024879932 1.700000048 0.00713317981)
(2.008860111 1.700000048 0.00945030991)
(2.042390108 1.700000048 0.004178400151)
(1.961570024 1.700000048 -0.01346859988)
(1.95472002 1.700000048 -0.01348679978)
(1.948650002 1.700000048 -0.01331179962)
(1.943220019 1.700000048 -0.01296919957)
(1.938719988 1.700000048 -0.01252670027)
(1.934710026 1.700000048 -0.01198299974)
(1.931489944 1.700000048 -0.01142350025)
(1.928750038 1.700000048 -0.01084060036)
(1.926339984 1.700000048 -0.01022940036)
(1.924100041 1.700000048 -0.009564000182)
(1.922330022 1.700000048 -0.008956139907)
(1.920600057 1.700000048 -0.00826426968)
(1.919190049 1.700000048 -0.00760929985)
(1.918089986 1.700000048 -0.007027450018)
(1.917019963 1.700000048 -0.006389610004)
(1.915860057 1.700000048 -0.005603100173)
(1.914899945 1.700000048 -0.00481298985)
(1.914080024 1.700000048 -0.003874049988)
(1.91347003 1.700000048 -0.002792350017)
(1.913010001 1.700000048 -0.001635940047)
(1.91305995 1.700000048 0.001782670035)
(1.913679957 1.700000048 0.003209709888)
(1.914360046 1.700000048 0.00424588006)
(1.915359974 1.700000048 0.005222689826)
(1.916489959 1.700000048 0.006049479824)
(1.917680025 1.700000048 0.00679436978)
(1.919190049 1.700000048 0.007608789951)
(1.921319962 1.700000048 0.00856348034)
(1.923799992 1.700000048 0.009467190132)
(1.926789999 1.700000048 0.01035069954)
(1.930570006 1.700000048 0.01124009956)
(1.934710026 1.700000048 0.01198249962)
(1.93919003 1.700000048 0.01257960033)
(1.944769979 1.700000048 0.01308669988)
(1.951609969 1.700000048 0.01342170034)
(1.958770037 1.700000048 0.01350099966)
(1.966390014 1.700000048 0.01333949994)
(1.975720048 1.700000048 0.01286180038)
(1.985190034 1.700000048 0.01212420035)
(1.996189952 1.700000048 0.01101120003)
(1.780969977 -0.01316250023 0.07546850294)
(1.779979944 -0.0127418004 0.07573139668)
(1.779459953 -0.01245549973 0.07587400079)
(1.776870012 -0.01105429977 0.07658120245)
(1.776000023 -0.01047119964 0.07682350278)
(1.774629951 -0.009552639909 0.07720589638)
(1.773159981 -0.008337549865 0.07762540132)
(1.77275002 -0.007998709567 0.0777418986)
(1.771909952 -0.00710745994 0.07799340039)
(1.771309972 -0.006487419829 0.07816849649)
(1.771119952 -0.006216169801 0.07822989672)
(1.770220041 -0.004983750172 0.07850860059)
(1.769490004 -0.003534500021 0.07875829935)
(1.769389987 -0.003344279947 0.07879099995)
(1.769330025 -0.003139340086 0.0788154006)
(1.76891005 -0.001677150023 0.07898829877)
(1.76880002 -0.0001875820017 0.07908649743)
(1.768779993 1.756349948e-17 0.07909890264)
(1.796749949 -0.01793459989 0.07177650183)
(1.794180036 -0.01743680052 0.07236800343)
(1.789870024 -0.01634979993 0.07336889952)
(1.789469957 -0.01624199934 0.07346080244)
(1.788030028 -0.01576960087 0.07380069792)
(1.784749985 -0.01471059956 0.0745704025)
(1.784139991 -0.01450060029 0.07471229881)
(1.76880002 0.0002021599939 0.07908769697)
(1.768890023 0.001520900056 0.07901419699)
(1.769250035 0.002845099894 0.07887610048)
(1.769320011 0.003107740078 0.07884889841)
(1.769449949 0.003376180073 0.0788076967)
(1.770059943 0.00465909997 0.07860829681)
(1.770840049 0.005797630176 0.07837189734)
(1.771090031 0.006170189939 0.07829540223)
(1.771520019 0.006642470136 0.0781717971)
(1.772459984 0.007672979962 0.07790149748)
(1.773020029 0.008155570365 0.07774440199)
(1.774279952 0.009245660156 0.07739210129)
(1.776890039 0.01100569963 0.07667910308)
(1.777130008 0.01117180008 0.07661379874)
(1.777269959 0.01125689968 0.07657519728)
(1.780189991 0.01275719982 0.07579659671)
(1.799909949 -0.01855299994 0.07101579756)
(1.857470036 -0.01948560029 0.05748829991)
(1.846639991 -0.0202657003 0.0600079)
(1.84525001 -0.02036570013 0.0603290014)
(1.844789982 -0.0203805007 0.06043680012)
(1.833009958 -0.02076949924 0.06318829954)
(1.826099992 -0.02070139907 0.06481110305)
(1.82178998 -0.02067190036 0.06582369655)
(1.81712997 -0.02041189931 0.06692390144)
(1.811589956 -0.02007639967 0.06823310256)
(1.805570006 -0.01934069954 0.06966750324)
(1.80219996 -0.0189539995 0.0704671964)
(1.876760006 -0.01730969921 0.05337300152)
(1.872990012 -0.01783169992 0.05417630076)
(1.862030029 -0.01903660037 0.05651399866)
(1.858559966 -0.01940740086 0.05725570023)
(1.780799985 0.01306369994 0.07564830035)
(1.782269955 0.01371899992 0.07528950274)
(1.786659956 0.01533950027 0.07422819734)
(1.788130045 0.01581769995 0.07387539744)
(1.792500019 0.01701739989 0.0728314966)
(1.797240019 0.01802580059 0.07170619816)
(1.877169967 -0.0172527004 0.0532848984)
(1.939489961 -0.004880790133 0.03999640048)
(1.939219952 -0.004950330127 0.04005439952)
(1.939120054 -0.004976910073 0.04007659853)
(1.936509967 -0.00562861003 0.04062920064)
(1.936179996 -0.005711290054 0.04069979861)
(1.933859944 -0.006281959824 0.0411924012)
(1.93046999 -0.007102909964 0.04191379994)
(1.930199981 -0.007166449912 0.04197020084)
(1.928900003 -0.00747324992 0.04224789888)
(1.925989985 -0.008157789707 0.04286659881)
(1.925529957 -0.008263239637 0.04296319932)
(1.921010017 -0.009287679568 0.04392459989)
(1.919450045 -0.009636860341 0.04425710067)
(1.915040016 -0.0105887996 0.0451955013)
(1.912580013 -0.01111179963 0.04571960121)
(1.908079982 -0.01202659961 0.04667919874)
(1.905060053 -0.01262990013 0.04732330143)
(1.899790049 -0.01361929998 0.0484480001)
(1.89605999 -0.01430539973 0.04924530163)
(1.889279962 -0.01544249989 0.05069269985)
(1.885349989 -0.01608560048 0.05153330043)
(1.944020033 -0.003724480048 0.03908269852)
(1.943510056 -0.0038548999 0.03918449953)
(1.941759944 -0.004305299837 0.03953839839)
(1.941580057 -0.004351309966 0.03957470134)
(1.940109968 -0.004723529797 0.03987120092)
(1.878010035 0.01716650091 0.05314290151)
(1.878970027 0.01702130027 0.05293609947)
(1.85679996 0.0195038002 0.05769659951)
(1.865370035 0.01872999966 0.05585379899)
(1.868880033 0.01830000058 0.05510240048)
(1.799059987 0.01841389947 0.07126890123)
(1.799360037 0.0184824001 0.07119680196)
(1.79974997 0.01854220033 0.07110349834)
(1.807060003 0.01960849948 0.0693622008)
(1.813079953 0.02012380026 0.06793499738)
(1.816310048 0.02041820064 0.06716970354)
(1.82043004 0.02057320066 0.06620059907)
(1.826329947 0.02076919936 0.06481110305)
(1.831640005 0.02071459964 0.06356660277)
(1.837970018 0.0206640996 0.06208259985)
(1.850350022 0.02003479935 0.0591971986)
(1.85168004 0.01996660046 0.0588865988)
(1.852239966 0.01991610043 0.05875520036)
(1.944079995 -0.003706600051 0.0390692018)
(1.956089973 -1.393399998e-05 0.03674539924)
(1.956089973 -0.0004895079765 0.03674060106)
(1.956069946 -0.0005045019789 0.03674359992)
(1.95570004 -0.0006060639862 0.0368152)
(1.955369949 -0.0006984039792 0.03688040003)
(1.955279946 -0.0007224900182 0.03689739853)
(1.954900026 -0.000828180986 0.03697219864)
(1.954660058 -0.0008919960237 0.03701749817)
(1.954380035 -0.0009692769963 0.03707230091)
(1.953940034 -0.001088069985 0.03715680167)
(1.953770041 -0.001136680017 0.03719130158)
(1.953549981 -0.001194759971 0.03723280132)
(1.953089952 -0.001320619951 0.03732259944)
(1.952669978 -0.001435240032 0.03740460053)
(1.952260017 -0.001544530038 0.03748299927)
(1.95193994 -0.001631560037 0.03754549846)
(1.951550007 -0.001735380036 0.03762029856)
(1.951159954 -0.001841890044 0.03769699857)
(1.950569987 -0.001999079948 0.03781079873)
(1.950240016 -0.002086709952 0.03787419945)
(1.950090051 -0.002126950072 0.03790339828)
(1.94915998 -0.002375839977 0.03808460012)
(1.948699951 -0.00249692006 0.03817300126)
(1.947839975 -0.002725860104 0.03834100068)
(1.947329998 -0.002859340049 0.03843909875)
(1.946419954 -0.003097750014 0.03861530125)
(1.946040034 -0.003198019927 0.03868959844)
(1.945129991 -0.003434919985 0.03886590153)
(1.939090014 0.004982800223 0.04009240121)
(1.940050006 0.004738620017 0.03988780081)
(1.882689953 0.01646259986 0.05213980004)
(1.889299989 0.01545930002 0.05072350055)
(1.894039989 0.01464189962 0.04970920086)
(1.899279952 0.01372539997 0.04858690128)
(1.903910041 0.01284139976 0.04759730026)
(1.908249974 0.01200070046 0.04666969925)
(1.912070036 0.01121190004 0.04585399851)
(1.915899992 0.01041159965 0.04503620043)
(1.918759942 0.009785190225 0.04442569986)
(1.922109962 0.009044690058 0.04371060058)
(1.92426002 0.008552799933 0.04325199872)
(1.927459955 0.007817089558 0.04257160053)
(1.929039955 0.007441279944 0.04223319888)
(1.931710005 0.006805500016 0.04166449979)
(1.932880044 0.006521460135 0.04141559824)
(1.935349941 0.00591822993 0.04088969901)
(1.936149955 0.005718769971 0.04071870074)
(1.938490033 0.005135689862 0.04022109881)
(1.944270015 0.003660330083 0.03904699907)
(1.944669962 0.003555939998 0.03896680102)
(1.941290021 0.004426249769 0.03964129835)
(1.941630006 0.004340100102 0.03957410157)
(1.94370997 0.003804320004 0.03915759921)
(1.943779945 0.003786019981 0.03914349899)
(1.945610046 0.003310449887 0.03878249973)
(1.945880055 0.003241789993 0.03873139992)
(1.947139978 0.002910240088 0.03848490119)
(1.94817996 0.002635879908 0.03828249872)
(1.948539972 0.00254161004 0.03821289912)
(1.949540019 0.002273950027 0.03801679984)
(1.94983995 0.002195799956 0.03795969859)
(1.950690031 0.001968810102 0.03779440001)
(1.950889945 0.001914580003 0.03775500134)
(1.951709986 0.001694889972 0.03759590164)
(1.951889992 0.001646460034 0.03756089881)
(1.952479959 0.001486449968 0.03744550049)
(1.952769995 0.001406489988 0.03738800064)
(1.953089952 0.001321249991 0.03732680157)
(1.953439951 0.001226269989 0.03725869954)
(1.953699946 0.001154439989 0.03720730171)
(1.954059958 0.001057020039 0.03713769838)
(1.954280019 0.0009972719708 0.0370949991)
(1.954740047 0.0008710930124 0.0370051004)
(1.954820037 0.0008499930263 0.03699009866)
(1.954890013 0.0008309939876 0.0369765982)
(1.955350041 0.0007039969787 0.03688640147)
(1.955389977 0.0006920130108 0.03687790036)
(1.95539999 0.0006887009949 0.03687550128)
(1.955739975 0.0005958349793 0.03680970147)
(1.955890059 0.0005544470041 0.03678039834)
)


// edges:

607
(
(8 9)
(9 10)
(8 11)
(11 12)
(12 13)
(13 14)
(14 15)
(15 16)
(16 17)
(17 0)
(0 18)
(18 19)
(19 20)
(20 21)
(21 22)
(22 23)
(23 24)
(24 25)
(25 26)
(26 27)
(27 28)
(28 29)
(29 30)
(30 31)
(31 32)
(32 33)
(33 34)
(34 35)
(35 36)
(36 37)
(37 38)
(38 39)
(39 40)
(40 41)
(41 1)
(1 42)
(42 43)
(43 44)
(44 45)
(45 46)
(46 47)
(47 48)
(48 49)
(49 50)
(50 51)
(51 52)
(52 53)
(53 54)
(54 55)
(55 56)
(57 10)
(56 57)
(0 58)
(58 59)
(59 60)
(60 61)
(61 62)
(62 63)
(63 64)
(64 65)
(65 66)
(66 67)
(67 68)
(68 69)
(69 70)
(70 71)
(71 72)
(72 73)
(73 74)
(74 75)
(75 76)
(76 77)
(77 78)
(78 79)
(80 79)
(81 80)
(81 82)
(82 83)
(83 84)
(84 85)
(85 86)
(87 86)
(87 88)
(88 89)
(89 90)
(90 91)
(91 92)
(92 93)
(93 94)
(94 95)
(95 96)
(96 97)
(97 98)
(98 99)
(100 99)
(101 100)
(102 101)
(102 103)
(103 104)
(105 106)
(107 105)
(108 107)
(109 108)
(6 110)
(111 112)
(113 104)
(106 114)
(109 115)
(115 116)
(110 117)
(7 118)
(119 113)
(120 121)
(122 120)
(114 122)
(116 123)
(117 124)
(118 125)
(119 126)
(127 126)
(128 127)
(129 128)
(130 129)
(121 131)
(123 132)
(132 133)
(124 134)
(125 135)
(130 131)
(133 136)
(134 137)
(135 138)
(136 139)
(137 140)
(138 141)
(142 139)
(142 143)
(140 144)
(145 146)
(144 145)
(141 147)
(148 143)
(148 149)
(150 151)
(152 150)
(153 152)
(154 155)
(155 156)
(146 157)
(147 158)
(158 159)
(160 149)
(160 161)
(151 162)
(163 164)
(165 163)
(166 165)
(167 166)
(153 168)
(169 168)
(170 169)
(171 170)
(172 171)
(173 172)
(156 173)
(174 175)
(154 176)
(177 174)
(175 178)
(157 176)
(159 179)
(180 161)
(181 180)
(182 181)
(162 183)
(164 184)
(167 185)
(186 185)
(187 186)
(188 187)
(189 188)
(178 189)
(179 177)
(190 182)
(183 191)
(184 192)
(190 193)
(194 193)
(191 195)
(192 196)
(197 196)
(194 198)
(195 199)
(197 200)
(198 201)
(199 202)
(200 203)
(201 204)
(205 202)
(203 206)
(204 207)
(205 208)
(209 206)
(210 209)
(207 211)
(208 212)
(213 210)
(214 212)
(211 215)
(216 217)
(218 216)
(219 218)
(220 219)
(221 214)
(213 222)
(223 224)
(224 225)
(226 223)
(227 226)
(228 227)
(229 228)
(230 229)
(215 231)
(232 233)
(217 232)
(220 234)
(234 235)
(235 236)
(236 237)
(237 238)
(238 239)
(239 240)
(240 241)
(241 242)
(242 243)
(243 244)
(244 245)
(245 246)
(246 247)
(247 248)
(248 249)
(249 250)
(250 251)
(251 252)
(252 253)
(253 254)
(254 255)
(255 256)
(256 257)
(257 2)
(2 258)
(258 259)
(259 260)
(260 261)
(261 262)
(262 3)
(3 263)
(263 264)
(264 265)
(265 266)
(266 267)
(267 268)
(268 269)
(269 270)
(270 271)
(271 272)
(272 273)
(273 274)
(274 275)
(275 276)
(276 277)
(277 278)
(278 279)
(279 280)
(280 281)
(281 282)
(282 283)
(283 284)
(284 285)
(285 286)
(286 287)
(287 225)
(230 288)
(288 289)
(289 290)
(290 291)
(291 292)
(292 293)
(293 294)
(294 295)
(295 296)
(296 297)
(297 298)
(298 299)
(299 300)
(300 301)
(301 302)
(302 303)
(303 304)
(304 305)
(305 306)
(306 307)
(307 308)
(308 309)
(309 310)
(310 311)
(311 233)
(221 312)
(222 313)
(231 314)
(3 315)
(2 316)
(312 317)
(313 318)
(314 319)
(315 320)
(316 321)
(322 317)
(318 323)
(319 324)
(325 320)
(321 326)
(322 327)
(328 323)
(324 329)
(325 330)
(326 331)
(332 331)
(327 333)
(328 334)
(335 334)
(329 336)
(330 337)
(337 338)
(339 332)
(333 340)
(341 335)
(342 340)
(336 343)
(338 344)
(344 345)
(339 346)
(347 346)
(341 348)
(349 342)
(343 350)
(345 351)
(351 352)
(353 354)
(347 353)
(355 354)
(356 355)
(357 356)
(357 349)
(348 358)
(350 359)
(360 358)
(352 360)
(359 361)
(361 362)