/*--------------------------------*- C++ -*----------------------------------*\
| =========                 |                                                 |
| \\      /  F ield         | OpenFOAM: The Open Source CFD Toolbox           |
|  \\    /   O peration     | Version:  plus-overset                          |
|   \\  /    A nd           | Web:      www.OpenFOAM.com                      |
|    \\/     M anipulation  |                                                 |
\*---------------------------------------------------------------------------*/
FoamFile
{
    version     2.0;
    format      ascii;
    class       dictionary;
    object      topoSetDict;
}
// * * * * * * * * * * * * * * * * * * * * * * * * * * * * * * * * * * * * * //

actions
(
/*    {
        name    background;
        type    cellSet;
        action  new;
        source  zoneToCell;
        sourceInfo
        {
            //insidePoints ((0.001 0.001 0.001));
            name backgroundMesh;
        }
    }


    {
        name    overset;
        type    cellSet;
        action  new;
        source  zoneToCell;
        sourceInfo
        {
            name movingZone;
        }
    }*/
    {
        name    oversetBox;
        type    cellSet;
        action  new;
        source  cylinderToCell;
        sourceInfo
        {
            p1  (-0.3 0 0);
            p2  (1 0 0);
            radius  0.1;
        }
    
    }
);

// ************************************************************************* //
