/*--------------------------------*- C++ -*----------------------------------*\
| =========                 |                                                 |
| \\      /  F ield         | OpenFOAM: The Open Source CFD Toolbox           |
|  \\    /   O peration     | Version:  v1706                                 |
|   \\  /    A nd           | Web:      www.OpenFOAM.com                      |
|    \\/     M anipulation  |                                                 |
\*---------------------------------------------------------------------------*/
FoamFile
{
    version     2.0;
    format      ascii;
    class       extendedFeatureEdgeMesh;
    location    "constant/extendedFeatureEdgeMesh";
    object      Autosub.extendedFeatureEdgeMesh;
}
// * * * * * * * * * * * * * * * * * * * * * * * * * * * * * * * * * * * * * //

// points

439
(
(-0.4448040128 -6.380770355e-05 -0.08461540192)
(-0.4044240117 0 -0.08461540192)
(-0.4044240117 0.08461540192 0)
(-0.4448040128 0.08461540192 -6.380770355e-05)
(-0.4448040128 -0.08461540192 -6.380770355e-05)
(-0.4044240117 -0.08461540192 3.757680022e-17)
(-0.4044240117 0 0.08461540192)
(-0.4448040128 -6.380770355e-05 0.08461540192)
(-0.3952440023 0 -0.03952080011)
(-0.4448040128 -8.101000276e-05 -0.0311019998)
(-0.3952440023 0.03952080011 5.006499904e-18)
(-0.3952440023 0 0.03952080011)
(-0.4448040128 0.0311019998 -8.101000276e-05)
(-0.4448040128 -0.0311019998 -8.101000276e-05)
(-0.4448040128 -8.101000276e-05 0.0311019998)
(-0.3952440023 -0.03952080011 2.756380041e-17)
(-0.4396939874 0.0009248789866 -0.03195669875)
(-0.4422439933 0.0005159400171 -0.03153260052)
(-0.4346239865 0.001669949968 -0.03278980032)
(-0.4295740128 0.002324909903 -0.03360870108)
(-0.4245640039 0.002886069939 -0.03441929817)
(-0.4195939898 0.003337129951 -0.03522789851)
(-0.4146440029 0.003646380035 -0.03604149818)
(-0.4097340107 0.003758430015 -0.03686830029)
(-0.4072940052 0.003714489983 -0.03728939965)
(-0.4048640132 0.003580709919 -0.0377173014)
(-0.402444005 0.003330149921 -0.03815310076)
(-0.4000340104 0.002911699936 -0.038598001)
(-0.3988339901 0.002609309973 -0.03882410005)
(-0.3976339996 0.002206149977 -0.03905300051)
(-0.3964439929 0.001621169969 -0.03928479925)
(-0.3958440125 0.001173640019 -0.03940210119)
(-0.3958440125 -0.001173640019 -0.03940210119)
(-0.3964439929 -0.001621169969 -0.03928479925)
(-0.3976339996 -0.002206149977 -0.03905300051)
(-0.3988339901 -0.002609309973 -0.03882410005)
(-0.4000340104 -0.002911699936 -0.038598001)
(-0.402444005 -0.003330149921 -0.03815310076)
(-0.4048640132 -0.003580709919 -0.0377173014)
(-0.4072940052 -0.003714489983 -0.03728939965)
(-0.4097340107 -0.003758430015 -0.03686830029)
(-0.4146440029 -0.003646380035 -0.03604149818)
(-0.4195939898 -0.003337129951 -0.03522789851)
(-0.4245640039 -0.002886069939 -0.03441929817)
(-0.4295740128 -0.002324909903 -0.03360870108)
(-0.4346239865 -0.001669949968 -0.03278980032)
(-0.4396939874 -0.0009248789866 -0.03195669875)
(-0.4422439933 -0.0005159400171 -0.03153260052)
(-0.3958440125 0.03940210119 -0.001173640019)
(-0.3964439929 0.03928479925 -0.001621169969)
(-0.4048640132 -0.0377173014 -0.003580709919)
(-0.402444005 -0.03815310076 -0.003330149921)
(-0.3976339996 0.03905300051 -0.002206149977)
(-0.3988339901 0.03882410005 -0.002609309973)
(-0.4000340104 0.038598001 -0.002911699936)
(-0.402444005 0.03815310076 -0.003330149921)
(-0.4146440029 -0.03604149818 0.003646380035)
(-0.4195939898 -0.03522789851 0.003337129951)
(-0.4072940052 -0.03728939965 -0.003714489983)
(-0.4245640039 0.03441929817 0.002886069939)
(-0.4195939898 0.03522789851 0.003337129951)
(-0.4048640132 0.0377173014 -0.003580709919)
(-0.4072940052 0.03728939965 -0.003714489983)
(-0.4097340107 -0.03686830029 -0.003758430015)
(-0.4295740128 0.03360870108 0.002324909903)
(-0.4097340107 0.03686830029 -0.003758430015)
(-0.4346239865 0.03278980032 0.001669949968)
(-0.4245640039 -0.03441929817 0.002886069939)
(-0.4146440029 -0.03604149818 -0.003646380035)
(-0.4146440029 0.03604149818 -0.003646380035)
(-0.4195939898 0.03522789851 -0.003337129951)
(-0.4195939898 -0.03522789851 -0.003337129951)
(-0.4396939874 0.03195669875 0.0009248789866)
(-0.4422439933 0.03153260052 0.0005159400171)
(-0.4295740128 -0.03360870108 0.002324909903)
(-0.4245640039 0.03441929817 -0.002886069939)
(-0.4444639981 0.03116109967 0)
(-0.4245640039 -0.03441929817 -0.002886069939)
(-0.4295740128 0.03360870108 -0.002324909903)
(-0.4346239865 0.03278980032 -0.001669949968)
(-0.4346239865 -0.03278980032 0.001669949968)
(-0.3958440125 0.001173640019 0.03940210119)
(-0.3964439929 0.001621169969 0.03928479925)
(-0.3976339996 0.002206149977 0.03905300051)
(-0.3988339901 0.002609309973 0.03882410005)
(-0.4295740128 -0.03360870108 -0.002324909903)
(-0.4396939874 -0.03195669875 0.0009248789866)
(-0.3958440125 -0.001173640019 0.03940210119)
(-0.4000340104 0.002911699936 0.038598001)
(-0.402444005 0.003330149921 0.03815310076)
(-0.3964439929 -0.001621169969 0.03928479925)
(-0.4346239865 -0.03278980032 -0.001669949968)
(-0.4396939874 0.03195669875 -0.0009248789866)
(-0.4422439933 0.03153260052 -0.0005159400171)
(-0.4422439933 -0.03153260052 0.0005159400171)
(-0.4048640132 0.003580709919 0.0377173014)
(-0.3976339996 -0.002206149977 0.03905300051)
(-0.4396939874 -0.03195669875 -0.0009248789866)
(-0.4422439933 -0.03153260052 -0.0005159400171)
(-0.4072940052 0.003714489983 0.03728939965)
(-0.4097340107 0.003758430015 0.03686830029)
(-0.402444005 -0.003330149921 0.03815310076)
(-0.4000340104 -0.002911699936 0.038598001)
(-0.4146440029 0.003646380035 0.03604149818)
(-0.4048640132 -0.003580709919 0.0377173014)
(-0.4072940052 -0.003714489983 0.03728939965)
(-0.4195939898 0.003337129951 0.03522789851)
(-0.4097340107 -0.003758430015 0.03686830029)
(-0.4146440029 -0.003646380035 0.03604149818)
(-0.4195939898 -0.003337129951 0.03522789851)
(-0.4245640039 0.002886069939 0.03441929817)
(-0.4295740128 0.002324909903 0.03360870108)
(-0.4245640039 -0.002886069939 0.03441929817)
(-0.4295740128 -0.002324909903 0.03360870108)
(-0.4346239865 0.001669949968 0.03278980032)
(-0.4346239865 -0.001669949968 0.03278980032)
(-0.3988339901 -0.002609309973 0.03882410005)
(-0.4396939874 0.0009248789866 0.03195669875)
(-0.4097340107 -0.03686830029 0.003758430015)
(-0.4422439933 0.0005159400171 0.03153260052)
(-0.4396939874 -0.0009248789866 0.03195669875)
(-0.4422439933 -0.0005159400171 0.03153260052)
(-0.3958440125 0.03940210119 0.001173640019)
(-0.3964439929 0.03928479925 0.001621169969)
(-0.3958440125 -0.03940210119 0.001173640019)
(-0.3964439929 -0.03928479925 0.001621169969)
(-0.3976339996 0.03905300051 0.002206149977)
(-0.3988339901 0.03882410005 0.002609309973)
(-0.4000340104 0.038598001 0.002911699936)
(-0.402444005 0.03815310076 0.003330149921)
(-0.3976339996 -0.03905300051 0.002206149977)
(-0.3988339901 -0.03882410005 0.002609309973)
(-0.3958440125 -0.03940210119 -0.001173640019)
(-0.4000340104 -0.038598001 0.002911699936)
(-0.402444005 -0.03815310076 0.003330149921)
(-0.3964439929 -0.03928479925 -0.001621169969)
(-0.4048640132 0.0377173014 0.003580709919)
(-0.4048640132 -0.0377173014 0.003580709919)
(-0.4072940052 0.03728939965 0.003714489983)
(-0.3988339901 -0.03882410005 -0.002609309973)
(-0.3976339996 -0.03905300051 -0.002206149977)
(-0.4097340107 0.03686830029 0.003758430015)
(-0.4072940052 -0.03728939965 0.003714489983)
(-0.4146440029 0.03604149818 0.003646380035)
(-0.4000340104 -0.038598001 -0.002911699936)
(-0.4427840114 -0.0004070769937 -0.08461540192)
(-0.4427840114 0.0004070769937 -0.08461540192)
(-0.44076401 0.0007309620269 -0.08461540192)
(-0.44076401 -0.0007309620269 -0.08461540192)
(-0.4367339909 0.001324209967 -0.08461540192)
(-0.4367339909 -0.001324209967 -0.08461540192)
(-0.4326939881 0.001849620021 -0.08461540192)
(-0.4326939881 -0.001849620021 -0.08461540192)
(-0.4286539853 0.002303540008 -0.08461540192)
(-0.4286539853 -0.002303540008 -0.08461540192)
(-0.4246140122 0.002672249917 -0.08461540192)
(-0.4246140122 -0.002672249917 -0.08461540192)
(-0.4205740094 0.002929500071 -0.08461540192)
(-0.4205740094 -0.002929500071 -0.08461540192)
(-0.4165340066 0.003029650077 -0.08461540192)
(-0.4165340066 -0.003029650077 -0.08461540192)
(-0.4145140052 0.002999369986 -0.08461540192)
(-0.4125039876 0.002896379912 -0.08461540192)
(-0.4145140052 -0.002999369986 -0.08461540192)
(-0.4125039876 -0.002896379912 -0.08461540192)
(-0.4104839861 0.002698499942 -0.08461540192)
(-0.4104839861 -0.002698499942 -0.08461540192)
(-0.4084640145 0.002363709966 -0.08461540192)
(-0.4074540138 0.002120190067 -0.08461540192)
(-0.4084640145 -0.002363709966 -0.08461540192)
(-0.4074540138 -0.002120190067 -0.08461540192)
(-0.4064440131 0.00179429003 -0.08461540192)
(-0.4064440131 -0.00179429003 -0.08461540192)
(-0.4054340124 0.001319770003 -0.08461540192)
(-0.4049240053 0.0009559040191 -0.08461540192)
(-0.4054340124 -0.001319770003 -0.08461540192)
(-0.4049240053 -0.0009559040191 -0.08461540192)
(-0.5486540198 -0.009057899937 0.009958289564)
(-0.5486540198 -0.008674579673 0.01029390004)
(-0.5486540198 -0.009428249672 0.00960838981)
(-0.5486540198 -0.009785089642 0.009244729765)
(-0.5486540198 -0.01012790017 0.008867830038)
(-0.5486540198 -0.01045619976 0.008478219621)
(-0.5486540198 -0.01076960005 0.008076470345)
(-0.5486540198 -0.01106750034 0.007663149852)
(-0.5486540198 -0.01134950016 0.007238849998)
(-0.5486540198 -0.01161529962 0.006804179866)
(-0.5486540198 -0.01186450012 0.006359760184)
(-0.5486540198 -0.01209670026 0.005906240083)
(-0.5486540198 -0.01231149957 0.00544425007)
(-0.5486540198 -0.01250869967 0.004974470008)
(-0.5486540198 -0.01268799976 0.004497560207)
(-0.5486540198 -0.01284909993 0.004014200065)
(-0.5486540198 -0.01299179997 0.00352509995)
(-0.5486540198 -0.01311589964 0.003030949971)
(-0.5486540198 -0.01322119962 0.002532450017)
(-0.5486540198 -0.0133074997 0.002030330012)
(-0.5486540198 -0.01337479986 0.001525299973)
(-0.5486540198 0.01345190033 0.0005094039952)
(-0.5486540198 0.01346150041 0)
(-0.5486540198 0.01342300046 0.001018080045)
(-0.5486540198 -0.01342300046 0.001018080045)
(-0.5486540198 -0.01345190033 0.0005094039952)
(-0.5486540198 0.01337479986 0.001525299973)
(-0.5486540198 -0.01346150041 -1.030770027e-17)
(-0.5486540198 -0.01345190033 -0.0005094039952)
(-0.5486540198 0.0133074997 0.002030330012)
(-0.5486540198 0.01322119962 0.002532450017)
(-0.5486540198 -0.01342300046 -0.001018080045)
(-0.5486540198 -0.01337479986 -0.001525299973)
(-0.5486540198 -0.0133074997 -0.002030330012)
(-0.5486540198 0.01311589964 0.003030949971)
(-0.5486540198 -0.01322119962 -0.002532450017)
(-0.5486540198 -0.01311589964 -0.003030949971)
(-0.5486540198 0.01299179997 0.00352509995)
(-0.5486540198 -0.01299179997 -0.00352509995)
(-0.5486540198 -0.01284909993 -0.004014200065)
(-0.5486540198 0.01284909993 0.004014200065)
(-0.5486540198 -0.01268799976 -0.004497560207)
(-0.5486540198 -0.01250869967 -0.004974470008)
(-0.5486540198 0.01268799976 0.004497560207)
(-0.5486540198 0.01250869967 0.004974470008)
(-0.5486540198 -0.01231149957 -0.00544425007)
(-0.5486540198 -0.01209670026 -0.005906240083)
(-0.5486540198 -0.01186450012 -0.006359760184)
(-0.5486540198 0.01231149957 0.00544425007)
(-0.5486540198 -0.01161529962 -0.006804179866)
(-0.5486540198 -0.01134950016 -0.007238849998)
(-0.5486540198 0.01209670026 0.005906240083)
(-0.5486540198 -0.01106750034 -0.007663149852)
(-0.5486540198 -0.01076960005 -0.008076470345)
(-0.5486540198 -0.01045619976 -0.008478219621)
(-0.5486540198 0.01186450012 0.006359760184)
(-0.5486540198 0.01161529962 0.006804179866)
(-0.5486540198 -0.01012790017 -0.008867830038)
(-0.5486540198 -0.009785089642 -0.009244729765)
(-0.5486540198 -0.009428249672 -0.00960838981)
(-0.5486540198 -0.009057899937 -0.009958289564)
(-0.5486540198 0.01134950016 0.007238849998)
(-0.5486540198 -0.008674579673 -0.01029390004)
(-0.5486540198 -0.008278829977 -0.01061480027)
(-0.5486540198 0.01106750034 0.007663149852)
(-0.5486540198 -0.007871219888 -0.01092050038)
(-0.5486540198 -0.007452330086 -0.01121050026)
(-0.5486540198 -0.007022770122 -0.01148450002)
(-0.5486540198 -0.006583150011 -0.01174199954)
(-0.5486540198 0.01076960005 0.008076470345)
(-0.5486540198 -0.006134099793 -0.01198269986)
(-0.5486540198 -0.005676260218 -0.01220630016)
(-0.5486540198 -0.005210290197 -0.01241230033)
(-0.5486540198 0.01045619976 0.008478219621)
(-0.5486540198 0.01012790017 0.008867830038)
(-0.5486540198 -0.004736859817 -0.01260059979)
(-0.5486540198 -0.004256640095 -0.01277079992)
(-0.5486540198 -0.003770329989 -0.01292280015)
(-0.5486540198 -0.003278610064 -0.0130562)
(-0.5486540198 0.009785089642 0.009244729765)
(-0.5486540198 -0.002782199997 -0.01317089982)
(-0.5486540198 -0.002281799912 -0.01326670032)
(-0.5486540198 -0.001778129954 -0.01334359962)
(-0.5486540198 -0.001271920046 -0.01340129972)
(-0.5486540198 0.009428249672 0.00960838981)
(-0.5486540198 -0.000763878983 -0.01343979966)
(-0.5486540198 -0.0002547480108 -0.01345910039)
(-0.5486540198 0.0002547480108 -0.01345910039)
(-0.5486540198 0.000763878983 -0.01343979966)
(-0.5486540198 0.001271920046 -0.01340129972)
(-0.5486540198 0.008674579673 0.01029390004)
(-0.5486540198 0.009057899937 0.009958289564)
(-0.5486540198 0.001778129954 -0.01334359962)
(-0.5486540198 0.002281799912 -0.01326670032)
(-0.5486540198 0.002782199997 -0.01317089982)
(-0.5486540198 0.003278610064 -0.0130562)
(-0.5486540198 0.003770329989 -0.01292280015)
(-0.5486540198 0.008278829977 0.01061480027)
(-0.5486540198 0.004256640095 -0.01277079992)
(-0.5486540198 0.004736859817 -0.01260059979)
(-0.5486540198 0.005210290197 -0.01241230033)
(-0.5486540198 0.005676260218 -0.01220630016)
(-0.5486540198 0.006134099793 -0.01198269986)
(-0.5486540198 0.007871219888 0.01092050038)
(-0.5486540198 0.006583150011 -0.01174199954)
(-0.5486540198 0.007022770122 -0.01148450002)
(-0.5486540198 0.007452330086 -0.01121050026)
(-0.5486540198 0.007871219888 -0.01092050038)
(-0.5486540198 0.008278829977 -0.01061480027)
(-0.5486540198 0.008674579673 -0.01029390004)
(-0.5486540198 0.009057899937 -0.009958289564)
(-0.5486540198 0.009428249672 -0.00960838981)
(-0.5486540198 0.007452330086 0.01121050026)
(-0.5486540198 0.009785089642 -0.009244729765)
(-0.5486540198 0.01012790017 -0.008867830038)
(-0.5486540198 0.01045619976 -0.008478219621)
(-0.5486540198 0.01076960005 -0.008076470345)
(-0.5486540198 0.01106750034 -0.007663149852)
(-0.5486540198 0.01134950016 -0.007238849998)
(-0.5486540198 0.01161529962 -0.006804179866)
(-0.5486540198 0.01186450012 -0.006359760184)
(-0.5486540198 0.01209670026 -0.005906240083)
(-0.5486540198 0.01231149957 -0.00544425007)
(-0.5486540198 0.01250869967 -0.004974470008)
(-0.5486540198 0.01268799976 -0.004497560207)
(-0.5486540198 0.01284909993 -0.004014200065)
(-0.5486540198 0.01299179997 -0.00352509995)
(-0.5486540198 0.01311589964 -0.003030949971)
(-0.5486540198 0.007022770122 0.01148450002)
(-0.5486540198 0.006583150011 0.01174199954)
(-0.5486540198 0.01322119962 -0.002532450017)
(-0.5486540198 0.0133074997 -0.002030330012)
(-0.5486540198 0.01337479986 -0.001525299973)
(-0.5486540198 0.01342300046 -0.001018080045)
(-0.5486540198 0.01345190033 -0.0005094039952)
(-0.5486540198 0.006134099793 0.01198269986)
(-0.5486540198 0.005676260218 0.01220630016)
(-0.5486540198 0.005210290197 0.01241230033)
(-0.5486540198 0.004736859817 0.01260059979)
(-0.5486540198 0.004256640095 0.01277079992)
(-0.5486540198 0.003770329989 0.01292280015)
(-0.5486540198 0.003278610064 0.0130562)
(-0.5486540198 0.002782199997 0.01317089982)
(-0.5486540198 0.002281799912 0.01326670032)
(-0.5486540198 0.001778129954 0.01334359962)
(-0.5486540198 0.001271920046 0.01340129972)
(-0.5486540198 0.000763878983 0.01343979966)
(-0.5486540198 0.0002547480108 0.01345910039)
(-0.5486540198 -0.0002547480108 0.01345910039)
(-0.5486540198 -0.000763878983 0.01343979966)
(-0.5486540198 -0.001271920046 0.01340129972)
(-0.5486540198 -0.001778129954 0.01334359962)
(-0.5486540198 -0.002281799912 0.01326670032)
(-0.5486540198 -0.002782199997 0.01317089982)
(-0.5486540198 -0.003278610064 0.0130562)
(-0.5486540198 -0.003770329989 0.01292280015)
(-0.5486540198 -0.004256640095 0.01277079992)
(-0.5486540198 -0.004736859817 0.01260059979)
(-0.5486540198 -0.005210290197 0.01241230033)
(-0.5486540198 -0.005676260218 0.01220630016)
(-0.5486540198 -0.006134099793 0.01198269986)
(-0.5486540198 -0.006583150011 0.01174199954)
(-0.5486540198 -0.007022770122 0.01148450002)
(-0.5486540198 -0.007452330086 0.01121050026)
(-0.5486540198 -0.007871219888 0.01092050038)
(-0.5486540198 -0.008278829977 0.01061480027)
(-0.4049240053 0.08461540192 0.0009559040191)
(-0.4054340124 0.08461540192 0.001319770003)
(-0.4064440131 0.08461540192 0.00179429003)
(-0.4074540138 0.08461540192 0.002120190067)
(-0.4084640145 0.08461540192 0.002363709966)
(-0.4104839861 0.08461540192 0.002698499942)
(-0.4125039876 0.08461540192 0.002896379912)
(-0.4145140052 0.08461540192 0.002999369986)
(-0.4165340066 0.08461540192 0.003029650077)
(-0.4205740094 0.08461540192 0.002929500071)
(-0.4246140122 0.08461540192 0.002672249917)
(-0.4286539853 0.08461540192 0.002303540008)
(-0.4326939881 0.08461540192 0.001849620021)
(-0.4367339909 0.08461540192 0.001324209967)
(-0.44076401 0.08461540192 0.0007309620269)
(-0.4427840114 0.08461540192 0.0004070769937)
(-0.4427840114 0.08461540192 -0.0004070769937)
(-0.44076401 0.08461540192 -0.0007309620269)
(-0.4367339909 0.08461540192 -0.001324209967)
(-0.4326939881 0.08461540192 -0.001849620021)
(-0.4286539853 0.08461540192 -0.002303540008)
(-0.4246140122 0.08461540192 -0.002672249917)
(-0.4205740094 0.08461540192 -0.002929500071)
(-0.4165340066 0.08461540192 -0.003029650077)
(-0.4145140052 0.08461540192 -0.002999369986)
(-0.4125039876 0.08461540192 -0.002896379912)
(-0.4104839861 0.08461540192 -0.002698499942)
(-0.4084640145 0.08461540192 -0.002363709966)
(-0.4074540138 0.08461540192 -0.002120190067)
(-0.4064440131 0.08461540192 -0.00179429003)
(-0.4054340124 0.08461540192 -0.001319770003)
(-0.4049240053 0.08461540192 -0.0009559040191)
(-0.4367339909 -0.08461540192 0.001324209967)
(-0.44076401 -0.08461540192 0.0007309620269)
(-0.4326939881 -0.08461540192 0.001849620021)
(-0.4427840114 -0.08461540192 0.0004070769937)
(-0.4286539853 -0.08461540192 0.002303540008)
(-0.4246140122 -0.08461540192 0.002672249917)
(-0.4427840114 -0.08461540192 -0.0004070769937)
(-0.4205740094 -0.08461540192 0.002929500071)
(-0.44076401 -0.08461540192 -0.0007309620269)
(-0.4165340066 -0.08461540192 0.003029650077)
(-0.4367339909 -0.08461540192 -0.001324209967)
(-0.4145140052 -0.08461540192 0.002999369986)
(-0.4326939881 -0.08461540192 -0.001849620021)
(-0.4125039876 -0.08461540192 0.002896379912)
(-0.4286539853 -0.08461540192 -0.002303540008)
(-0.4104839861 -0.08461540192 0.002698499942)
(-0.4246140122 -0.08461540192 -0.002672249917)
(-0.4084640145 -0.08461540192 0.002363709966)
(-0.4205740094 -0.08461540192 -0.002929500071)
(-0.4074540138 -0.08461540192 0.002120190067)
(-0.4165340066 -0.08461540192 -0.003029650077)
(-0.4064440131 -0.08461540192 0.00179429003)
(-0.4145140052 -0.08461540192 -0.002999369986)
(-0.4054340124 -0.08461540192 0.001319770003)
(-0.4125039876 -0.08461540192 -0.002896379912)
(-0.4049240053 -0.08461540192 0.0009559040191)
(-0.4104839861 -0.08461540192 -0.002698499942)
(-0.4084640145 -0.08461540192 -0.002363709966)
(-0.4049240053 -0.08461540192 -0.0009559040191)
(-0.4074540138 -0.08461540192 -0.002120190067)
(-0.4054340124 -0.08461540192 -0.001319770003)
(-0.4064440131 -0.08461540192 -0.00179429003)
(-0.4367339909 0.001324209967 0.08461540192)
(-0.44076401 0.0007309620269 0.08461540192)
(-0.4326939881 0.001849620021 0.08461540192)
(-0.4286539853 0.002303540008 0.08461540192)
(-0.4246140122 0.002672249917 0.08461540192)
(-0.4205740094 0.002929500071 0.08461540192)
(-0.4165340066 0.003029650077 0.08461540192)
(-0.4145140052 0.002999369986 0.08461540192)
(-0.4125039876 0.002896379912 0.08461540192)
(-0.4104839861 0.002698499942 0.08461540192)
(-0.4084640145 0.002363709966 0.08461540192)
(-0.4074540138 0.002120190067 0.08461540192)
(-0.4064440131 0.00179429003 0.08461540192)
(-0.4054340124 0.001319770003 0.08461540192)
(-0.4049240053 0.0009559040191 0.08461540192)
(-0.4049240053 -0.0009559040191 0.08461540192)
(-0.4054340124 -0.001319770003 0.08461540192)
(-0.4064440131 -0.00179429003 0.08461540192)
(-0.4074540138 -0.002120190067 0.08461540192)
(-0.4084640145 -0.002363709966 0.08461540192)
(-0.4104839861 -0.002698499942 0.08461540192)
(-0.4125039876 -0.002896379912 0.08461540192)
(-0.4145140052 -0.002999369986 0.08461540192)
(-0.4165340066 -0.003029650077 0.08461540192)
(-0.4205740094 -0.002929500071 0.08461540192)
(-0.4246140122 -0.002672249917 0.08461540192)
(-0.4286539853 -0.002303540008 0.08461540192)
(-0.4326939881 -0.001849620021 0.08461540192)
(-0.4367339909 -0.001324209967 0.08461540192)
(-0.44076401 -0.0007309620269 0.08461540192)
(-0.4427840114 -0.0004070769937 0.08461540192)
(-0.4427840114 0.0004070769937 0.08461540192)
)

// edges

447
(
(16 17)
(18 16)
(19 18)
(20 19)
(21 20)
(22 21)
(23 22)
(24 23)
(25 24)
(26 25)
(27 26)
(28 27)
(29 28)
(30 29)
(31 30)
(8 31)
(32 8)
(33 32)
(34 33)
(35 34)
(36 35)
(37 36)
(38 37)
(39 38)
(40 39)
(41 40)
(42 41)
(43 42)
(44 43)
(45 44)
(46 45)
(47 46)
(9 47)
(17 9)
(48 49)
(10 48)
(50 51)
(52 53)
(49 52)
(54 55)
(53 54)
(56 57)
(58 50)
(59 60)
(55 61)
(61 62)
(63 58)
(64 59)
(62 65)
(66 64)
(57 67)
(68 63)
(65 69)
(69 70)
(71 68)
(72 66)
(73 72)
(67 74)
(70 75)
(76 73)
(77 71)
(75 78)
(78 79)
(74 80)
(81 82)
(83 84)
(85 77)
(11 81)
(82 83)
(80 86)
(87 11)
(88 89)
(84 88)
(90 87)
(91 85)
(92 93)
(86 94)
(89 95)
(93 12)
(96 90)
(97 91)
(94 13)
(98 97)
(99 100)
(101 102)
(13 98)
(100 103)
(104 101)
(105 104)
(103 106)
(107 105)
(108 107)
(109 108)
(110 111)
(112 109)
(113 112)
(111 114)
(115 113)
(95 99)
(116 96)
(102 116)
(106 110)
(114 117)
(118 56)
(117 119)
(79 92)
(120 115)
(119 14)
(121 120)
(12 76)
(14 121)
(122 10)
(123 122)
(124 125)
(126 123)
(127 126)
(15 124)
(128 127)
(129 128)
(130 131)
(125 130)
(132 15)
(133 134)
(131 133)
(135 132)
(136 129)
(134 137)
(138 136)
(139 140)
(140 135)
(141 138)
(137 142)
(143 141)
(142 118)
(51 144)
(144 139)
(60 143)
(0 145)
(146 0)
(147 146)
(145 148)
(149 147)
(148 150)
(151 149)
(150 152)
(153 151)
(152 154)
(155 153)
(154 156)
(157 155)
(156 158)
(159 157)
(158 160)
(161 159)
(162 161)
(160 163)
(163 164)
(165 162)
(164 166)
(167 165)
(168 167)
(166 169)
(169 170)
(171 168)
(170 172)
(173 171)
(174 173)
(172 175)
(175 176)
(1 174)
(176 1)
(1 8)
(0 9)
(177 178)
(179 177)
(180 179)
(181 180)
(182 181)
(183 182)
(184 183)
(185 184)
(186 185)
(187 186)
(188 187)
(189 188)
(190 189)
(191 190)
(192 191)
(193 192)
(194 193)
(195 194)
(196 195)
(197 196)
(198 199)
(200 198)
(201 197)
(202 201)
(203 200)
(204 202)
(205 204)
(206 203)
(207 206)
(208 205)
(209 208)
(210 209)
(211 207)
(212 210)
(213 212)
(214 211)
(215 213)
(216 215)
(217 214)
(218 216)
(219 218)
(220 217)
(221 220)
(222 219)
(223 222)
(224 223)
(225 221)
(226 224)
(227 226)
(228 225)
(229 227)
(230 229)
(231 230)
(232 228)
(233 232)
(234 231)
(235 234)
(236 235)
(237 236)
(238 233)
(239 237)
(240 239)
(241 238)
(242 240)
(243 242)
(244 243)
(245 244)
(246 241)
(247 245)
(248 247)
(249 248)
(250 246)
(251 250)
(252 249)
(253 252)
(254 253)
(255 254)
(256 251)
(257 255)
(258 257)
(259 258)
(260 259)
(261 256)
(262 260)
(263 262)
(264 263)
(265 264)
(266 265)
(267 268)
(268 261)
(269 266)
(270 269)
(271 270)
(272 271)
(273 272)
(274 267)
(275 273)
(276 275)
(277 276)
(278 277)
(279 278)
(280 274)
(281 279)
(282 281)
(283 282)
(284 283)
(285 284)
(286 285)
(287 286)
(288 287)
(289 280)
(290 288)
(291 290)
(292 291)
(293 292)
(294 293)
(295 294)
(296 295)
(297 296)
(298 297)
(299 298)
(300 299)
(301 300)
(302 301)
(303 302)
(304 303)
(305 289)
(306 305)
(307 304)
(308 307)
(309 308)
(310 309)
(311 310)
(199 311)
(312 306)
(313 312)
(314 313)
(315 314)
(316 315)
(317 316)
(318 317)
(319 318)
(320 319)
(321 320)
(322 321)
(323 322)
(324 323)
(325 324)
(326 325)
(327 326)
(328 327)
(329 328)
(330 329)
(331 330)
(332 331)
(333 332)
(334 333)
(335 334)
(336 335)
(337 336)
(338 337)
(339 338)
(340 339)
(341 340)
(342 341)
(178 342)
(2 10)
(343 2)
(344 343)
(345 344)
(346 345)
(347 346)
(348 347)
(349 348)
(350 349)
(351 350)
(352 351)
(353 352)
(354 353)
(355 354)
(356 355)
(357 356)
(358 357)
(3 358)
(12 3)
(359 3)
(360 359)
(361 360)
(362 361)
(363 362)
(364 363)
(365 364)
(366 365)
(367 366)
(368 367)
(369 368)
(370 369)
(371 370)
(372 371)
(373 372)
(374 373)
(2 374)
(375 376)
(377 375)
(376 378)
(379 377)
(378 4)
(4 13)
(380 379)
(4 381)
(382 380)
(381 383)
(384 382)
(383 385)
(386 384)
(385 387)
(388 386)
(387 389)
(390 388)
(389 391)
(392 390)
(391 393)
(394 392)
(393 395)
(396 394)
(395 397)
(398 396)
(397 399)
(400 398)
(399 401)
(15 5)
(5 400)
(401 402)
(403 5)
(402 404)
(405 403)
(404 406)
(406 405)
(407 408)
(409 407)
(410 409)
(411 410)
(412 411)
(413 412)
(414 413)
(415 414)
(416 415)
(417 416)
(418 417)
(419 418)
(420 419)
(421 420)
(11 6)
(6 421)
(422 6)
(423 422)
(424 423)
(425 424)
(426 425)
(427 426)
(428 427)
(429 428)
(430 429)
(431 430)
(432 431)
(433 432)
(434 433)
(435 434)
(436 435)
(437 436)
(7 437)
(14 7)
(438 7)
(408 438)
)

// concaveStart mixedStart nonFeatureStart
0 8 16
// internalStart flatStart openStart multipleStart
137 447 447 447
// normals

833
(
(0.1583919716 -0.9873762698 0.0002919839228)
(0.1704439516 -0.04185897686 0.9844778745)
(0.1455035262 -0.9893575035 0.0006739161969)
(0.1685895315 -0.04627431568 0.9845995417)
(0.1288418502 -0.9916641637 0.001401466813)
(0.1665735053 -0.05330503498 0.9845871422)
(0.1116781098 -0.9937417843 0.002294776534)
(0.1687935042 -0.08902313799 0.9816229591)
(0.09104661745 -0.9958381663 0.004106103719)
(0.1683329485 -0.09611447965 0.9810331418)
(0.06350462728 -0.997956703 0.007041399598)
(0.1675574047 -0.102315298 0.9805386764)
(0.02477624255 -0.9996249829 0.01166324883)
(0.1675269789 -0.1270260487 0.977649781)
(-0.01499772454 -0.9997358396 0.01741606452)
(0.1675163212 -0.09853257886 0.9809330319)
(-0.05094300159 -0.9984399817 0.02285636953)
(0.16712735 -0.1011914327 0.9807286795)
(-0.0975167333 -0.9947688053 0.03042220629)
(0.1666566944 -0.09701860214 0.981230318)
(-0.1634206389 -0.9856692641 0.04183057042)
(0.1655469341 -0.09065933518 0.9820260167)
(-0.2343272161 -0.970631549 0.0544532089)
(0.162153965 -0.09115601191 0.9825460158)
(-0.3060993163 -0.9495828078 0.06779159054)
(0.1606953618 -0.08022907959 0.9837379201)
(-0.4251145947 -0.9006148472 0.09039069854)
(0.165583251 -0.05336730579 0.9847507896)
(-0.57840255 -0.8068808619 0.1199740169)
(0.1636685351 -0.03895163999 0.9857461034)
(-0.8690028585 -0.4621476301 0.176786877)
(0.1704228839 -0.01252306712 0.9852914358)
(-0.8690028585 0.4621476301 0.176786877)
(0.1649720801 0.01539939484 0.986178012)
(-0.57840255 0.8068808619 0.1199740169)
(0.1570754327 0.04796757388 0.9864210157)
(-0.4251145947 0.9006148472 0.09039069854)
(0.1593311034 0.06618621208 0.9850040532)
(-0.3060993163 0.9495828078 0.06779159054)
(0.1614054219 0.07814486599 0.9837894438)
(-0.2343272161 0.970631549 0.0544532089)
(0.1637715902 0.08495164685 0.9828337011)
(-0.1634206389 0.9856692641 0.04183057042)
(0.1681259201 0.07661192435 0.9827839478)
(-0.0975167333 0.9947688053 0.03042220629)
(0.1651609645 0.1095998865 0.980158008)
(-0.05094300159 0.9984399817 0.02285636953)
(0.1662295995 0.1136274718 0.9795185133)
(-0.01499772454 0.9997358396 0.01741606452)
(0.1669483506 0.1144390109 0.9793017722)
(0.02477624255 0.9996249829 0.01166324883)
(0.1675028845 0.1147331749 0.9791726519)
(0.06350462728 0.997956703 0.007041399598)
(0.1680815995 0.1144837198 0.9791026779)
(0.09104661745 0.9958381663 0.004106103719)
(0.1692609855 0.1090539922 0.9795192421)
(0.1116781098 0.9937417843 0.002294776534)
(0.1699570491 0.1014432207 0.9802162386)
(0.1288418502 0.9916641637 0.001401466813)
(0.1681849481 0.06713035346 0.9834669994)
(0.1455035262 0.9893575035 0.0006739161969)
(0.1704144355 0.05986314129 0.9835524005)
(0.1583919716 0.9873762698 0.0002919839228)
(0.1693554026 0.03458351101 0.9849480841)
(0.1675103269 0.9858703157 0.0001047641531)
(0.1691749685 0.02020169603 0.9853789735)
(0.2269938417 -0.9738960084 -0.0006005144471)
(0.1639914879 0.008266718654 0.986427115)
(0.1661839524 -0.9854554375 0.03550316321)
(-0.57840255 -0.1199740169 0.8068808619)
(0.1593126004 -0.9870570452 0.01838164283)
(-0.8690028585 -0.176786877 0.4621476301)
(0.1658928221 0.9807000916 0.1034741608)
(-0.0975167333 0.03042220629 0.9947688053)
(0.162675329 -0.9838698038 0.07441066122)
(-0.3060993163 -0.06779159054 0.9495828078)
(0.1563166485 -0.9850544464 0.07233839278)
(-0.4251145947 -0.09039069854 0.9006148472)
(0.1667213068 -0.9823948122 0.08428783344)
(-0.1634206389 -0.04183057042 0.9856692641)
(0.1637774672 -0.9828346745 0.08492905199)
(-0.2343272161 -0.0544532089 0.970631549)
(0.1678187114 0.9798499026 -0.1083099648)
(0.06350462728 0.007041399598 -0.997956703)
(0.166671647 0.9801292041 0.1075514081)
(-0.05094300159 0.02285636953 0.9984399817)
(0.1696922616 -0.9787405385 -0.1152019736)
(0.09104661745 -0.004106103719 -0.9958381663)
(0.1644247335 -0.9795799146 0.1157052196)
(-0.0975167333 -0.03042220629 0.9947688053)
(0.1657863012 -0.9788784477 0.1196322988)
(-0.05094300159 -0.02285636953 0.9984399817)
(0.1671986623 0.9800363829 0.1075792518)
(-0.01499772454 0.01741606452 0.9997358396)
(0.1681702586 -0.9823013811 -0.08247885056)
(0.1116781098 -0.002294776534 -0.9937417843)
(0.1667120157 -0.9785877069 0.1207195252)
(-0.01499772454 -0.01741606452 0.9997358396)
(0.169476069 -0.9824104566 -0.07840635666)
(0.1288418502 -0.001401466813 -0.9916641637)
(0.1688159818 0.9802719184 -0.1028014121)
(0.09104661745 0.004106103719 -0.9958381663)
(0.1674797758 0.9799166511 0.1082306868)
(0.02477624255 0.01166324883 0.9996249829)
(0.1675182794 -0.978421437 0.1209508895)
(0.02477624255 -0.01166324883 0.9996249829)
(0.1683333496 -0.9783322066 0.1205403544)
(0.06350462728 -0.007041399598 0.997956703)
(0.1678187114 0.9798499026 0.1083099648)